
  EPA STORM WATER MANAGEMENT MODEL - VERSION 5.1 (Build 5.1.013)
  --------------------------------------------------------------

  Example of an input file generated totally outside of the SWMM example program 
  
  WARNING 04: minimum elevation drop used for Conduit 88
  WARNING 04: minimum elevation drop used for Conduit Boundary1_2
  WARNING 04: minimum elevation drop used for Conduit Boundary1_3
  WARNING 04: minimum elevation drop used for Conduit Boundary1_5
  WARNING 04: minimum elevation drop used for Conduit Boundary1_6
  WARNING 04: minimum elevation drop used for Conduit Boundary2_2
  WARNING 04: minimum elevation drop used for Conduit Boundary2_3
  WARNING 04: minimum elevation drop used for Conduit Boundary3_2
  WARNING 04: minimum elevation drop used for Conduit Boundary4_1
  WARNING 04: minimum elevation drop used for Conduit Boundary4_4
  WARNING 04: minimum elevation drop used for Conduit Boundary4_5
  WARNING 04: minimum elevation drop used for Conduit Boundary4_6
  WARNING 04: minimum elevation drop used for Conduit Boundary4_7
  WARNING 04: minimum elevation drop used for Conduit C_Bridge_022_Road
  WARNING 03: negative offset ignored for Link C_CUL009-2
  WARNING 03: negative offset ignored for Link C_CUL010a
  WARNING 04: minimum elevation drop used for Conduit C_CUL2_026
  WARNING 04: minimum elevation drop used for Conduit C_CUL2_027
  WARNING 04: minimum elevation drop used for Conduit C_CUL2_083
  WARNING 04: minimum elevation drop used for Conduit C_CUL2_106
  WARNING 04: minimum elevation drop used for Conduit C_CUL2_109
  WARNING 04: minimum elevation drop used for Conduit C_CUL2_110
  
  *********************************************************
  NOTE: The summary statistics displayed in this report are
  based on results found at every computational time step,  
  not just on results from each reporting time step.
  *********************************************************
  
  ****************
  Analysis Options
  ****************
  Flow Units ............... CMS
  Process Models:
    Rainfall/Runoff ........ YES
    RDII ................... NO
    Snowmelt ............... NO
    Groundwater ............ NO
    Flow Routing ........... YES
    Ponding Allowed ........ YES
    Water Quality .......... NO
  Infiltration Method ...... GREEN_AMPT
  Flow Routing Method ...... DYNWAVE
  Surcharge Method ......... EXTRAN
  Starting Date ............ 09/09/2012 12:00:00
  Ending Date .............. 09/09/2012 13:00:00
  Antecedent Dry Days ...... 0.0
  Report Time Step ......... 00:05:00
  Wet Time Step ............ 00:05:00
  Dry Time Step ............ 00:05:00
  Routing Time Step ........ 0.25 sec
  Variable Time Step ....... YES
  Maximum Trials ........... 8
  Number of Threads ........ 1
  Head Tolerance ........... 0.001500 m
  
  
  *********************
  Control Actions Taken
  *********************
   09/09/2012: 12:00:00 Link Ab_Gate_PROP2 setting changed to   0.00 by Control Gate2_CLOSE_IF_LOW

  
  **************************        Volume         Depth
  Runoff Quantity Continuity     hectare-m            mm
  **************************     ---------       -------
  Total Precipitation ......       268.500         5.470
  Evaporation Loss .........         0.000         0.000
  Infiltration Loss ........       102.076         2.080
  Surface Runoff ...........        33.971         0.692
  Final Storage ............       137.221         2.796
  Continuity Error (%) .....        -1.776
  
  
  **************************        Volume        Volume
  Flow Routing Continuity        hectare-m      10^6 ltr
  **************************     ---------     ---------
  Dry Weather Inflow .......         0.000         0.000
  Wet Weather Inflow .......        26.985       269.853
  Groundwater Inflow .......         0.000         0.000
  RDII Inflow ..............         0.000         0.000
  External Inflow ..........      1705.383     17054.004
  External Outflow .........      5782.208     57822.684
  Flooding Loss ............         0.000         0.000
  Evaporation Loss .........         0.000         0.000
  Exfiltration Loss ........         0.000         0.000
  Initial Stored Volume ....     32185.109    321854.444
  Final Stored Volume ......     29003.725    290040.270
  Continuity Error (%) .....        -2.560
  
  
  *************************
  Highest Continuity Errors
  *************************
  Node J19 (99.99%)
  Node J39 (99.99%)
  Node J70 (99.99%)
  Node J102 (99.99%)
  Node J13 (99.99%)
  
  
  ***************************
  Time-Step Critical Elements
  ***************************
  None
  
  
  ********************************
  Highest Flow Instability Indexes
  ********************************
  Link C_CUL039 (19)
  Link C_CUL006 (9)
  Link C_CUL012 (8)
  Link TR_5 (6)
  Link 119 (6)
  
  
  *************************
  Routing Time Step Summary
  *************************
  Minimum Time Step           :     0.25 sec
  Average Time Step           :     0.25 sec
  Maximum Time Step           :     0.25 sec
  Percent in Steady State     :     0.00
  Average Iterations per Step :     2.01
  Percent Not Converging      :     0.00
  
  
  ***************************
  Subcatchment Runoff Summary
  ***************************
  
  ------------------------------------------------------------------------------------------------------------------------------
                            Total      Total      Total      Total     Imperv       Perv      Total       Total     Peak  Runoff
                           Precip      Runon       Evap      Infil     Runoff     Runoff     Runoff      Runoff   Runoff   Coeff
  Subcatchment                 mm         mm         mm         mm         mm         mm         mm    10^6 ltr      CMS
  ------------------------------------------------------------------------------------------------------------------------------
  GroundWater                6.25       0.00       0.00       0.00       6.16       0.00       6.16      217.20   318.30   0.984
  S1_1                       6.25       0.00       0.00       0.55       1.47       0.07       1.54        0.08     0.17   0.246
  S1_2                       6.25       0.00       0.00       0.55       3.62       0.51       4.12        0.02     0.04   0.659
  SC_0                       7.77       0.00       0.00       3.19       0.23       0.09       0.32        0.44     0.81   0.041
  SC_1                      11.89       0.00       0.00       2.35       0.76       0.30       1.06        1.33     2.39   0.089
  SC_10                      7.86       0.00       0.00       2.43       0.00       0.15       0.15        0.15     0.39   0.019
  SC_100                     0.69       0.00       0.00       0.67       0.02       0.00       0.02        0.01     0.01   0.025
  SC_101                     1.47       0.00       0.00       1.44       0.02       0.00       0.02        0.03     0.03   0.017
  SC_102                     3.03       0.00       0.00       2.95       0.08       0.00       0.08        0.04     0.03   0.025
  SC_103                     0.84       0.00       0.00       0.81       0.02       0.00       0.02        0.04     0.07   0.021
  SC_104                     1.70       0.00       0.00       1.52       0.09       0.00       0.09        0.02     0.01   0.055
  SC_105                     0.83       0.00       0.00       0.72       0.06       0.00       0.06        0.04     0.02   0.072
  SC_106                     1.88       0.00       0.00       1.77       0.08       0.00       0.08        0.04     0.03   0.044
  SC_107                     1.21       0.00       0.00       1.21       0.00       0.00       0.00        0.00     0.00   0.000
  SC_108                     2.37       0.00       0.00       2.37       0.00       0.00       0.00        0.00     0.00   0.000
  SC_109                     3.72       0.00       0.00       3.66       0.05       0.00       0.05        0.03     0.02   0.014
  SC_11                      8.74       0.00       0.00       2.62       0.00       0.10       0.10        0.10     0.13   0.012
  SC_110                     3.32       0.00       0.00       2.38       0.00       0.01       0.01        0.01     0.01   0.002
  SC_111                     2.90       0.00       0.00       2.32       0.00       0.00       0.00        0.00     0.00   0.001
  SC_112                     0.78       0.00       0.00       0.70       0.02       0.00       0.02        0.04     0.09   0.027
  SC_113                     2.21       0.00       0.00       2.20       0.01       0.00       0.01        0.01     0.01   0.004
  SC_114                     0.85       0.00       0.00       0.76       0.02       0.00       0.02        0.07     0.07   0.029
  SC_115                     3.18       0.00       0.00       2.92       0.00       0.00       0.00        0.00     0.00   0.000
  SC_116                     0.27       0.00       0.00       0.27       0.00       0.00       0.00        0.00     0.00   0.000
  SC_117                     2.54       0.00       0.00       2.39       0.00       0.00       0.00        0.00     0.00   0.000
  SC_118                     0.60       0.00       0.00       0.59       0.00       0.00       0.00        0.01     0.01   0.007
  SC_119                     0.68       0.00       0.00       0.68       0.00       0.00       0.00        0.00     0.00   0.000
  SC_12                      9.78       0.00       0.00       3.41       0.43       0.16       0.59        0.36     0.68   0.060
  SC_120                     0.64       0.00       0.00       0.64       0.00       0.00       0.00        0.00     0.00   0.000
  SC_121                     1.23       0.00       0.00       1.23       0.00       0.00       0.00        0.01     0.01   0.003
  SC_122                     2.35       0.00       0.00       2.29       0.06       0.00       0.06        0.05     0.06   0.024
  SC_123                     1.62       0.00       0.00       1.56       0.05       0.00       0.05        0.07     0.05   0.028
  SC_124                     2.72       0.00       0.00       2.72       0.00       0.00       0.00        0.00     0.01   0.001
  SC_125                     1.94       0.00       0.00       1.74       0.09       0.00       0.09        0.14     0.15   0.046
  SC_126                     8.80       0.00       0.00       1.47       1.53       0.13       1.66        0.17     0.22   0.189
  SC_127                     8.80       0.00       0.00       1.47       2.09       0.79       2.88        0.04     0.05   0.327
  SC_128                     8.80       0.00       0.00       1.25       0.61       0.03       0.64        0.38     0.57   0.072
  SC_129                     8.80       0.00       0.00       1.25       1.50       2.29       3.79        0.02     0.02   0.431
  SC_13                      8.07       0.00       0.00       1.77       0.54       0.22       0.76        0.33     0.71   0.095
  SC_130                     8.80       0.00       0.00       0.98       1.41       0.04       1.45        0.35     0.54   0.164
  SC_131                     8.80       0.00       0.00       0.98       2.21       0.08       2.30        0.26     0.38   0.261
  SC_132                     8.80       0.00       0.00       0.58       3.73       0.20       3.93        0.07     0.10   0.446
  SC_133                     8.80       0.00       0.00       0.58       5.91       1.06       6.97        0.01     0.01   0.792
  SC_134                     8.80       0.00       0.00       0.45       2.81       0.10       2.91        0.17     0.26   0.331
  SC_135                     8.80       0.00       0.00       0.45       4.78       0.27       5.05        0.09     0.12   0.573
  SC_14                      9.79       0.00       0.00       2.13       0.02       0.20       0.21        0.14     0.33   0.022
  SC_15                      9.69       0.00       0.00       2.48       0.20       0.15       0.35        0.37     0.86   0.036
  SC_16                     10.53       0.00       0.00       3.39       0.00       0.21       0.21        0.10     0.25   0.020
  SC_17                     13.12       0.00       0.00       2.68       0.00       0.69       0.69        0.59     0.62   0.053
  SC_175                     6.50       0.00       0.00       1.87       0.00       0.10       0.10        0.00     0.00   0.015
  SC_18                     10.59       0.00       0.00       2.79       0.35       0.13       0.48        0.46     0.87   0.045
  SC_19                      6.02       0.00       0.00       1.52       0.34       0.05       0.39        0.21     0.43   0.064
  SC_191                     3.27       0.00       0.00       1.14       0.61       0.01       0.62        0.03     0.04   0.190
  SC_192                     7.97       0.00       0.00       2.16       0.77       0.21       0.98        0.01     0.02   0.123
  SC_193_0                   5.74       0.00       0.00       0.82       1.08       0.05       1.13        0.15     0.29   0.196
  SC_193_1                   5.74       0.00       0.00       1.59       0.35       0.02       0.37        0.01     0.02   0.065
  SC_193_3                   5.74       0.00       0.00       0.10       2.61       0.07       2.69        0.10     0.18   0.468
  SC_193_4                   5.74       0.00       0.00       0.75       3.15       0.69       3.84        0.06     0.11   0.669
  SC_193_5                   5.74       0.00       0.00       1.49       1.88       0.08       1.95        0.11     0.19   0.340
  SC_193_6                   5.74       0.00       0.00       0.93       2.09       0.13       2.22        0.08     0.13   0.387
  SC_193_7                   5.74       0.00       0.00       0.93       1.55       0.06       1.61        0.13     0.24   0.280
  SC_2                       8.85       0.00       0.00       2.81       0.25       0.20       0.45        0.61     1.18   0.051
  SC_20                      7.97       0.00       0.00       2.12       0.02       0.14       0.16        0.00     0.01   0.020
  SC_21                      9.80       0.00       0.00       4.43       0.00       0.11       0.11        0.22     0.44   0.011
  SC_22                      9.93       0.00       0.00       2.73       0.00       0.30       0.30        0.14     0.35   0.030
  SC_23                      8.28       0.00       0.00       2.68       0.68       0.06       0.75        0.64     1.13   0.090
  SC_24                      5.50       0.00       0.00       1.86       0.66       0.09       0.75        0.15     0.25   0.135
  SC_25                      3.80       0.00       0.00       0.85       0.13       0.00       0.14        0.17     0.35   0.036
  SC_26                      5.55       0.00       0.00       1.55       0.60       0.01       0.61        0.32     0.61   0.110
  SC_27                      6.45       0.00       0.00       1.37       1.20       0.05       1.25        0.66     1.21   0.194
  SC_28                     11.47       0.00       0.00       3.62       0.00       0.23       0.23        0.29     0.71   0.020
  SC_29                      8.89       0.00       0.00       3.08       0.34       0.09       0.43        0.44     0.76   0.048
  SC_3                       6.37       0.00       0.00       2.21       0.00       0.08       0.08        0.06     0.15   0.013
  SC_30                      3.26       0.00       0.00       0.54       0.96       0.27       1.23        0.06     0.14   0.379
  SC_31                      8.05       0.00       0.00       3.24       0.02       0.05       0.08        0.11     0.24   0.010
  SC_32                      2.41       0.00       0.00       1.51       0.10       0.00       0.10        0.09     0.19   0.040
  SC_33                      0.96       0.00       0.00       0.56       0.03       0.00       0.03        0.06     0.15   0.035
  SC_34                      5.74       0.00       0.00       2.35       0.23       0.03       0.26        0.13     0.27   0.046
  SC_35                      3.51       0.00       0.00       2.65       0.11       0.00       0.11        0.14     0.21   0.031
  SC_350                     6.96       0.00       0.00       1.85       0.87       0.13       1.00        0.27     0.50   0.143
  SC_352                     5.93       0.00       0.00       0.00       4.20       0.00       4.20        0.01     0.01   0.708
  SC_354                     5.93       0.00       0.00       0.00       3.32       0.00       3.32        0.01     0.02   0.560
  SC_355                     5.93       0.00       0.00       0.00       3.18       0.00       3.18        0.02     0.04   0.537
  SC_356                     5.95       0.00       0.00       1.20       0.80       0.02       0.82        0.06     0.11   0.138
  SC_36                      7.32       0.00       0.00       3.18       0.19       0.07       0.26        0.23     0.35   0.035
  SC_360                     5.58       0.00       0.00       0.00       2.84       0.00       2.84        0.02     0.04   0.510
  SC_361                     5.93       0.00       0.00       0.00       2.86       0.00       2.86        0.02     0.04   0.482
  SC_362                     5.58       0.00       0.00       1.44       0.66       0.02       0.67        0.07     0.12   0.121
  SC_363                     5.93       0.00       0.00       0.00       1.71       0.00       1.71        0.05     0.11   0.288
  SC_364                     5.93       0.00       0.00       1.63       0.26       0.14       0.40        0.00     0.00   0.067
  SC_365                     5.93       0.00       0.00       0.30       2.31       0.06       2.37        0.05     0.10   0.400
  SC_368                     5.93       0.00       0.00       0.78       2.31       0.11       2.42        0.02     0.03   0.409
  SC_37                      4.43       0.00       0.00       1.48       0.05       0.03       0.08        0.04     0.08   0.019
  SC_370                     5.58       0.00       0.00       0.00       2.46       0.00       2.46        0.01     0.02   0.441
  SC_372                     5.58       0.00       0.00       0.00       2.79       0.00       2.79        0.03     0.05   0.499
  SC_373                     6.18       0.00       0.00       1.39       0.78       0.04       0.81        0.09     0.17   0.132
  SC_374                     5.65       0.00       0.00       1.86       0.63       0.07       0.70        0.24     0.41   0.123
  SC_376                     7.21       0.00       0.00       1.59       1.08       0.05       1.13        0.07     0.12   0.157
  SC_377                     7.21       0.00       0.00       1.91       2.15       0.04       2.20        0.07     0.12   0.304
  SC_378                     6.52       0.00       0.00       1.47       0.80       0.01       0.82        0.31     0.62   0.125
  SC_379                     5.50       0.00       0.00       1.45       0.23       0.22       0.45        0.03     0.06   0.082
  SC_38                      2.95       0.00       0.00       2.52       0.06       0.00       0.06        0.04     0.05   0.020
  SC_380                     7.21       0.00       0.00       2.46       1.26       0.02       1.28        0.11     0.21   0.178
  SC_381                     7.21       0.00       0.00       3.04       0.98       0.03       1.01        0.02     0.04   0.141
  SC_382                     2.38       0.00       0.00       2.25       0.11       0.00       0.11        0.02     0.02   0.047
  SC_383                     3.49       0.00       0.00       2.94       0.14       0.00       0.15        0.07     0.07   0.042
  SC_385                     7.23       0.00       0.00       0.85       0.77       0.02       0.79        0.09     0.17   0.109
  SC_386                     8.86       0.00       0.00       2.96       0.00       0.34       0.34        0.01     0.02   0.038
  SC_389                     5.83       0.00       0.00       1.81       0.46       0.02       0.47        0.10     0.16   0.081
  SC_39                      3.12       0.00       0.00       0.62       0.14       0.00       0.14        0.07     0.13   0.046
  SC_391                     6.22       0.00       0.00       0.80       1.31       0.03       1.34        0.07     0.12   0.215
  SC_395                     6.25       0.00       0.00       1.17       1.05       0.06       1.11        0.04     0.08   0.177
  SC_396                     7.97       0.00       0.00       0.54       2.81       0.08       2.89        0.06     0.11   0.363
  SC_397                     5.73       0.00       0.00       1.28       0.65       0.03       0.68        0.11     0.22   0.119
  SC_398                     7.97       0.00       0.00       0.87       2.05       0.10       2.14        0.09     0.16   0.269
  SC_399                     7.97       0.00       0.00       1.90       1.12       0.11       1.23        0.03     0.04   0.154
  SC_4                      12.11       0.00       0.00       1.98       0.84       0.31       1.15        1.12     2.16   0.095
  SC_40                      0.52       0.00       0.00       0.51       0.01       0.00       0.01        0.00     0.01   0.010
  SC_404                     7.97       0.00       0.00       0.00       2.19       0.00       2.19        0.12     0.20   0.274
  SC_405                     7.97       0.00       0.00       0.00       3.47       0.00       3.47        0.09     0.16   0.435
  SC_407                     6.49       0.00       0.00       1.26       0.75       0.04       0.79        0.06     0.11   0.122
  SC_408                     6.76       0.00       0.00       1.45       0.14       0.03       0.17        0.00     0.01   0.026
  SC_41                      7.59       0.00       0.00       1.96       0.19       0.09       0.28        0.76     0.68   0.037
  SC_412                     7.33       0.00       0.00       1.32       1.26       0.04       1.30        0.04     0.06   0.178
  SC_414                     7.39       0.00       0.00       0.83       1.23       0.03       1.26        0.18     0.32   0.170
  SC_415                     5.44       0.00       0.00       0.88       1.82       0.06       1.88        0.28     0.46   0.346
  SC_416                     8.64       0.00       0.00       2.94       0.08       0.40       0.48        0.02     0.05   0.055
  SC_417                     6.60       0.00       0.00       2.13       0.44       0.10       0.54        0.11     0.23   0.081
  SC_418                     7.32       0.00       0.00       2.80       0.28       0.19       0.47        0.06     0.12   0.065
  SC_419                     5.93       0.00       0.00       0.00       3.95       0.00       3.95        0.02     0.03   0.666
  SC_42                      5.81       0.00       0.00       3.11       0.03       0.05       0.08        0.05     0.06   0.014
  SC_420                     5.81       0.00       0.00       0.35       0.92       0.02       0.94        0.10     0.20   0.161
  SC_421                     6.16       0.00       0.00       1.45       0.66       0.06       0.72        0.02     0.04   0.116
  SC_422                     8.86       0.00       0.00       2.98       0.00       0.31       0.31        0.03     0.09   0.035
  SC_423                     7.35       0.00       0.00       0.21       1.92       0.07       1.99        0.09     0.17   0.271
  SC_425                     5.90       0.00       0.00       1.59       1.00       0.10       1.10        0.03     0.05   0.187
  SC_426                     5.60       0.00       0.00       1.06       1.38       0.08       1.45        0.07     0.12   0.259
  SC_43                      1.36       0.00       0.00       1.10       0.02       0.00       0.02        0.02     0.04   0.015
  SC_430                     6.28       0.00       0.00       1.55       0.39       0.02       0.41        0.11     0.21   0.066
  SC_431                     7.59       0.00       0.00       0.04       1.55       0.02       1.58        0.22     0.39   0.208
  SC_433                     7.97       0.00       0.00       1.93       0.28       0.03       0.32        0.02     0.03   0.040
  SC_434                     6.42       0.00       0.00       1.52       0.26       0.01       0.27        0.06     0.12   0.042
  SC_435                     6.41       0.00       0.00       1.62       0.18       0.01       0.19        0.11     0.20   0.030
  SC_436                     5.59       0.00       0.00       1.75       1.02       0.07       1.09        0.22     0.42   0.195
  SC_437                     5.58       0.00       0.00       1.25       0.77       0.02       0.79        0.08     0.14   0.141
  SC_44                      1.68       0.00       0.00       1.52       0.07       0.00       0.07        0.03     0.06   0.044
  SC_45                      0.36       0.00       0.00       0.27       0.01       0.00       0.01        0.01     0.02   0.039
  SC_450                     2.36       0.00       0.00       2.36       0.00       0.00       0.00        0.00     0.00   0.000
  SC_453                    12.12       0.00       0.00       4.26       0.21       0.51       0.72        1.30     1.11   0.059
  SC_454                    13.14       0.00       0.00       4.44       0.03       0.52       0.55        1.65     2.00   0.042
  SC_455                     9.25       0.00       0.00       3.32       0.00       0.19       0.19        0.26     0.59   0.021
  SC_456                    11.08       0.00       0.00       4.35       0.02       0.31       0.33        0.35     0.48   0.030
  SC_457                     9.53       0.00       0.00       3.53       0.00       0.25       0.25        0.30     0.58   0.026
  SC_458                    11.85       0.00       0.00       2.91       0.74       1.63       2.37        1.67     1.74   0.200
  SC_459                     8.20       0.00       0.00       2.71       0.00       0.24       0.24        0.26     0.50   0.029
  SC_46                      0.53       0.00       0.00       0.44       0.01       0.00       0.01        0.02     0.02   0.026
  SC_460                    13.99       0.00       0.00       4.69       0.00       0.94       0.94        1.00     1.25   0.067
  SC_461                    16.67       0.00       0.00       3.88       0.04       0.71       0.74        0.98     1.11   0.045
  SC_462                    13.74       0.00       0.00       4.60       0.05       0.61       0.66        2.27     2.62   0.048
  SC_463                    13.20       0.00       0.00       3.38       0.05       0.80       0.85        1.26     1.51   0.064
  SC_464                    18.54       0.00       0.00       3.78       0.00       1.07       1.07        2.74     3.23   0.058
  SC_465                    20.69       0.00       0.00       3.82       0.47       1.83       2.29        2.59     2.46   0.111
  SC_466                    14.20       0.00       0.00       3.15       0.27       0.39       0.66        3.70     4.14   0.047
  SC_467                     1.66       0.00       0.00       1.53       0.03       0.00       0.03        0.13     0.09   0.020
  SC_468                    14.70       0.00       0.00       2.87       0.00       3.10       3.10        1.08     1.43   0.211
  SC_469                    10.29       0.00       0.00       2.84       0.29       0.43       0.72        1.70     1.89   0.070
  SC_47                      1.72       0.00       0.00       1.66       0.05       0.00       0.05        0.01     0.01   0.029
  SC_470                    20.49       0.00       0.00       3.89       0.37       1.65       2.02        5.45     5.96   0.099
  SC_471                    17.31       0.00       0.00       3.83       0.26       2.11       2.37        1.41     1.66   0.137
  SC_472                    14.46       0.00       0.00       5.25       0.43       0.73       1.16        2.65     1.99   0.080
  SC_473                    12.72       0.00       0.00       2.59       0.89       0.86       1.75        1.82     1.81   0.138
  SC_474                     9.25       0.00       0.00       3.76       0.23       0.19       0.43        1.23     1.18   0.046
  SC_475                     1.38       0.00       0.00       1.38       0.00       0.00       0.00        0.00     0.00   0.000
  SC_476                    13.14       0.00       0.00       3.00       0.71       1.04       1.75        0.98     1.02   0.133
  SC_477                    17.14       0.00       0.00       3.81       0.40       0.63       1.04        2.58     3.08   0.060
  SC_478                     3.29       0.00       0.00       2.84       0.01       0.00       0.01        0.03     0.04   0.004
  SC_479                     8.30       0.00       0.00       3.33       0.11       0.12       0.23        0.69     0.63   0.028
  SC_48                      1.73       0.00       0.00       1.68       0.04       0.00       0.04        0.08     0.08   0.025
  SC_480                     5.06       0.00       0.00       2.94       0.03       0.03       0.06        0.14     0.15   0.011
  SC_481                    13.45       0.00       0.00       3.67       0.66       1.19       1.85        1.74     2.03   0.138
  SC_482                    16.38       0.00       0.00       2.68       3.77       4.19       7.95        0.33     0.23   0.486
  SC_483                    12.79       0.00       0.00       2.84       0.19       0.22       0.41        1.43     1.79   0.032
  SC_484                    14.68       0.00       0.00       5.54       0.03       0.61       0.64        1.12     0.71   0.044
  SC_485                    12.94       0.00       0.00       4.51       0.52       0.22       0.74        0.20     0.11   0.057
  SC_486                     0.31       0.00       0.00       0.28       0.00       0.00       0.00        0.00     0.00   0.002
  SC_487                     0.34       0.00       0.00       0.29       0.00       0.00       0.00        0.01     0.01   0.008
  SC_488                     8.11       0.00       0.00       3.59       0.10       0.08       0.18        0.36     0.39   0.022
  SC_489                    16.95       0.00       0.00       3.78       0.09       0.55       0.64        5.43     7.76   0.038
  SC_49                      1.66       0.00       0.00       0.72       0.13       0.00       0.13        0.04     0.04   0.079
  SC_490                    13.00       0.00       0.00       5.00       0.22       0.58       0.80        0.64     0.39   0.061
  SC_491                     0.32       0.00       0.00       0.29       0.00       0.00       0.00        0.00     0.00   0.002
  SC_492                     1.18       0.00       0.00       1.18       0.00       0.00       0.00        0.00     0.00   0.000
  SC_493                    13.11       0.00       0.00       4.17       0.09       0.19       0.28        0.76     0.85   0.021
  SC_494                    13.80       0.00       0.00       5.36       0.21       0.32       0.53        1.76     1.57   0.039
  SC_495                     6.24       0.00       0.00       2.79       0.10       0.07       0.17        0.29     0.31   0.027
  SC_496                     5.01       0.00       0.00       2.82       0.16       0.05       0.21        0.33     0.40   0.042
  SC_497                     0.16       0.00       0.00       0.05       0.00       0.00       0.00        0.00     0.00   0.002
  SC_498                     0.24       0.00       0.00       0.22       0.00       0.00       0.00        0.00     0.00   0.003
  SC_499                     0.22       0.00       0.00       0.09       0.01       0.00       0.01        0.00     0.00   0.034
  SC_5                       7.06       0.00       0.00       2.75       0.00       0.12       0.12        0.06     0.16   0.016
  SC_50                      2.02       0.00       0.00       1.77       0.02       0.00       0.02        0.03     0.06   0.012
  SC_500                     1.69       0.00       0.00       1.53       0.04       0.00       0.04        0.08     0.09   0.023
  SC_501                     2.02       0.00       0.00       1.98       0.03       0.00       0.03        0.12     0.15   0.016
  SC_502                    16.72       0.00       0.00       3.86       0.19       0.41       0.60        1.51     1.93   0.036
  SC_503                     0.92       0.00       0.00       0.88       0.02       0.00       0.02        0.03     0.03   0.024
  SC_504                     1.50       0.00       0.00       1.50       0.00       0.00       0.00        0.00     0.00   0.000
  SC_505                     8.75       0.00       0.00       2.49       0.04       0.17       0.21        0.71     1.06   0.024
  SC_506                    16.62       0.00       0.00       3.67       0.15       1.23       1.38        1.90     3.37   0.083
  SC_507                     1.76       0.00       0.00       1.24       0.09       0.00       0.10        0.10     0.11   0.054
  SC_508                     1.02       0.00       0.00       1.02       0.00       0.00       0.00        0.00     0.01   0.003
  SC_509                     0.78       0.00       0.00       0.75       0.02       0.00       0.02        0.05     0.06   0.025
  SC_51                      5.01       0.00       0.00       2.34       0.92       0.04       0.96        0.80     0.86   0.192
  SC_510                    13.51       0.00       0.00       3.78       0.05       0.40       0.44        0.85     1.27   0.033
  SC_511                     4.84       0.00       0.00       2.79       0.14       0.02       0.16        0.53     0.58   0.033
  SC_512                     8.41       0.00       0.00       2.81       0.20       0.17       0.37        0.39     0.48   0.044
  SC_513                     6.90       0.00       0.00       2.91       0.04       0.05       0.10        0.20     0.29   0.014
  SC_514                     0.46       0.00       0.00       0.44       0.01       0.00       0.01        0.01     0.01   0.019
  SC_515                     1.02       0.00       0.00       0.92       0.01       0.00       0.01        0.05     0.05   0.008
  SC_516                    17.07       0.00       0.00       3.84       0.37       1.31       1.68        1.22     1.66   0.098
  SC_517                    15.90       0.00       0.00       3.76       0.36       3.07       3.44        0.73     1.15   0.216
  SC_518                     0.79       0.00       0.00       0.78       0.00       0.00       0.00        0.00     0.00   0.002
  SC_519                    11.75       0.00       0.00       3.83       0.14       0.11       0.25        0.64     1.00   0.021
  SC_52                      7.99       0.00       0.00       2.69       0.61       0.27       0.88        0.68     0.84   0.110
  SC_520                     6.93       0.00       0.00       3.27       0.11       0.04       0.14        0.47     0.75   0.021
  SC_521                     0.80       0.00       0.00       0.76       0.01       0.00       0.01        0.09     0.10   0.012
  SC_522                     0.43       0.00       0.00       0.43       0.00       0.00       0.00        0.00     0.00   0.007
  SC_523                     7.82       0.00       0.00       3.67       0.07       0.04       0.11        0.15     0.26   0.015
  SC_524                     0.33       0.00       0.00       0.30       0.02       0.00       0.02        0.01     0.01   0.056
  SC_525                    14.54       0.00       0.00       3.89       0.17       0.48       0.64        0.70     0.79   0.044
  SC_526                    15.99       0.00       0.00       3.44       0.62       0.85       1.46        1.00     1.19   0.092
  SC_527                     1.79       0.00       0.00       1.64       0.10       0.00       0.10        0.21     0.17   0.057
  SC_528                    13.21       0.00       0.00       3.85       0.20       0.53       0.73        1.46     1.39   0.055
  SC_529                     1.97       0.00       0.00       1.94       0.01       0.00       0.01        0.06     0.05   0.007
  SC_53                      1.01       0.00       0.00       0.99       0.02       0.00       0.02        0.03     0.03   0.015
  SC_530                     4.04       0.00       0.00       2.08       0.03       0.01       0.04        0.05     0.10   0.010
  SC_531                     0.59       0.00       0.00       0.57       0.01       0.00       0.01        0.02     0.01   0.023
  SC_532                     2.90       0.00       0.00       1.77       0.03       0.00       0.03        0.10     0.24   0.012
  SC_533                     9.81       0.00       0.00       3.95       0.00       0.15       0.15        0.16     0.24   0.015
  SC_534                     2.81       0.00       0.00       1.43       0.01       0.01       0.02        0.02     0.05   0.006
  SC_535                    12.85       0.00       0.00       3.96       0.15       0.18       0.33        1.34     1.09   0.026
  SC_536                     4.67       0.00       0.00       1.78       0.37       0.26       0.63        0.02     0.04   0.135
  SC_537                     4.48       0.00       0.00       1.81       0.08       0.01       0.09        0.43     0.92   0.020
  SC_538                     0.63       0.00       0.00       0.48       0.09       0.00       0.09        0.01     0.00   0.146
  SC_539                    10.37       0.00       0.00       3.73       0.23       0.15       0.39        1.11     1.57   0.037
  SC_54                      7.85       0.00       0.00       2.24       0.00       0.11       0.11        0.11     0.20   0.014
  SC_540                     0.81       0.00       0.00       0.79       0.00       0.00       0.00        0.01     0.01   0.005
  SC_541                     0.82       0.00       0.00       0.55       0.04       0.00       0.04        0.08     0.08   0.049
  SC_542                     1.03       0.00       0.00       0.65       0.08       0.00       0.08        0.15     0.13   0.077
  SC_543                     1.61       0.00       0.00       1.38       0.02       0.00       0.02        0.08     0.10   0.013
  SC_544                     2.33       0.00       0.00       1.52       0.12       0.00       0.12        0.05     0.10   0.051
  SC_545                    12.15       0.00       0.00       3.84       0.01       0.37       0.39        0.64     0.73   0.032
  SC_546                     0.90       0.00       0.00       0.72       0.03       0.00       0.03        0.08     0.11   0.035
  SC_547                     5.97       0.00       0.00       1.35       0.18       0.07       0.25        0.45     0.86   0.043
  SC_548                     2.49       0.00       0.00       2.06       0.05       0.00       0.05        0.16     0.26   0.020
  SC_549                     0.26       0.00       0.00       0.26       0.00       0.00       0.00        0.00     0.00   0.012
  SC_55                      1.13       0.00       0.00       0.65       0.06       0.00       0.06        0.04     0.02   0.049
  SC_550                     0.76       0.00       0.00       0.69       0.01       0.00       0.01        0.04     0.05   0.017
  SC_551                    12.80       0.00       0.00       3.11       0.48       0.60       1.08        1.45     1.53   0.084
  SC_552                     6.16       0.00       0.00       2.90       0.02       0.02       0.03        0.10     0.20   0.005
  SC_553                    13.48       0.00       0.00       2.70       1.69       1.69       3.38        0.60     0.70   0.251
  SC_554                     7.62       0.00       0.00       3.50       0.19       0.09       0.28        0.26     0.40   0.037
  SC_555                     5.06       0.00       0.00       2.74       0.05       0.02       0.07        0.08     0.15   0.014
  SC_556                     0.81       0.00       0.00       0.22       0.29       0.00       0.29        0.00     0.00   0.356
  SC_557                     1.76       0.00       0.00       1.43       0.04       0.00       0.04        0.27     0.49   0.026
  SC_558                     2.03       0.00       0.00       1.35       0.17       0.00       0.17        0.33     0.42   0.084
  SC_559                     8.55       0.00       0.00       3.50       0.17       0.08       0.25        0.37     0.63   0.029
  SC_56                      0.57       0.00       0.00       0.33       0.03       0.00       0.03        0.02     0.05   0.048
  SC_560                     2.64       0.00       0.00       1.71       0.07       0.00       0.07        0.13     0.28   0.026
  SC_561                     1.91       0.00       0.00       1.62       0.02       0.00       0.02        0.03     0.05   0.013
  SC_562                     4.77       0.00       0.00       3.25       0.00       0.01       0.01        0.03     0.06   0.002
  SC_563                     5.85       0.00       0.00       2.66       0.00       0.24       0.24        0.03     0.09   0.042
  SC_564                     1.48       0.00       0.00       1.42       0.02       0.00       0.02        0.01     0.02   0.013
  SC_565                     5.99       0.00       0.00       1.54       0.00       0.09       0.09        0.10     0.25   0.015
  SC_566                     3.80       0.00       0.00       2.90       0.06       0.01       0.07        0.12     0.13   0.018
  SC_567                     0.79       0.00       0.00       0.67       0.01       0.00       0.01        0.00     0.01   0.015
  SC_568                     0.92       0.00       0.00       0.86       0.01       0.00       0.01        0.03     0.04   0.015
  SC_569                     2.22       0.00       0.00       1.43       0.06       0.00       0.06        0.36     0.77   0.029
  SC_57                      0.75       0.00       0.00       0.71       0.02       0.00       0.02        0.02     0.02   0.030
  SC_570                     3.87       0.00       0.00       3.47       0.00       0.00       0.00        0.00     0.00   0.000
  SC_571                     2.14       0.00       0.00       1.65       0.13       0.00       0.13        0.16     0.24   0.061
  SC_572                     3.06       0.00       0.00       1.89       0.16       0.00       0.16        0.29     0.47   0.052
  SC_573                     1.33       0.00       0.00       1.30       0.03       0.00       0.03        0.04     0.06   0.021
  SC_574                     3.18       0.00       0.00       1.74       0.46       0.01       0.47        0.18     0.26   0.149
  SC_575                     2.95       0.00       0.00       2.37       0.07       0.00       0.07        0.17     0.20   0.023
  SC_576                     1.98       0.00       0.00       1.62       0.00       0.00       0.00        0.01     0.01   0.002
  SC_577                     0.76       0.00       0.00       0.71       0.02       0.00       0.02        0.04     0.05   0.025
  SC_578                     2.78       0.00       0.00       1.30       0.22       0.01       0.23        0.26     0.52   0.083
  SC_579                     3.55       0.00       0.00       0.65       1.21       0.05       1.26        0.11     0.18   0.356
  SC_58                      1.06       0.00       0.00       0.73       0.05       0.00       0.05        0.04     0.09   0.045
  SC_580                     2.54       0.00       0.00       2.31       0.04       0.00       0.04        0.11     0.15   0.017
  SC_581                     3.27       0.00       0.00       1.73       0.31       0.01       0.32        0.39     0.60   0.096
  SC_582                     1.36       0.00       0.00       1.36       0.00       0.00       0.00        0.00     0.00   0.000
  SC_583                     1.94       0.00       0.00       1.50       0.04       0.00       0.04        0.12     0.22   0.021
  SC_584                     3.18       0.00       0.00       1.83       0.16       0.01       0.16        0.19     0.34   0.051
  SC_585                     2.33       0.00       0.00       2.18       0.05       0.00       0.05        0.14     0.10   0.022
  SC_586                     3.06       0.00       0.00       2.41       0.00       0.00       0.00        0.01     0.01   0.001
  SC_587                     4.00       0.00       0.00       0.79       0.54       0.03       0.57        0.18     0.27   0.143
  SC_588                     1.54       0.00       0.00       1.32       0.04       0.00       0.04        0.12     0.11   0.026
  SC_589                     3.54       0.00       0.00       0.44       0.39       0.03       0.42        0.18     0.25   0.119
  SC_59                      0.98       0.00       0.00       0.83       0.03       0.00       0.03        0.03     0.06   0.031
  SC_590                     1.86       0.00       0.00       1.77       0.05       0.00       0.05        0.20     0.17   0.026
  SC_591                     3.05       0.00       0.00       1.51       0.00       0.01       0.01        0.01     0.03   0.002
  SC_592                     3.82       0.00       0.00       1.31       1.02       0.05       1.08        0.10     0.10   0.281
  SC_593                     2.78       0.00       0.00       2.49       0.05       0.00       0.05        0.08     0.08   0.018
  SC_594                     3.70       0.00       0.00       1.41       0.19       0.01       0.20        0.30     0.62   0.055
  SC_595                     2.90       0.00       0.00       1.68       0.06       0.00       0.06        0.10     0.18   0.021
  SC_596                     4.21       0.00       0.00       0.95       0.32       0.02       0.35        0.17     0.36   0.083
  SC_597                     3.52       0.00       0.00       1.65       0.09       0.01       0.09        0.20     0.40   0.026
  SC_598                     4.55       0.00       0.00       1.76       0.07       0.03       0.10        0.11     0.26   0.022
  SC_599                     4.16       0.00       0.00       1.78       0.06       0.02       0.08        0.09     0.23   0.020
  SC_6                       8.81       0.00       0.00       2.48       0.95       0.25       1.20        0.72     1.13   0.137
  SC_60                      0.88       0.00       0.00       0.76       0.04       0.00       0.04        0.02     0.05   0.040
  SC_600                     2.81       0.00       0.00       2.77       0.03       0.00       0.03        0.08     0.07   0.009
  SC_601                     1.92       0.00       0.00       1.82       0.04       0.00       0.04        0.09     0.06   0.022
  SC_602                     1.22       0.00       0.00       1.19       0.01       0.00       0.01        0.02     0.02   0.011
  SC_603                     3.36       0.00       0.00       2.68       0.20       0.00       0.20        0.96     0.57   0.060
  SC_604                     2.67       0.00       0.00       2.65       0.02       0.00       0.02        0.05     0.06   0.007
  SC_605                     3.46       0.00       0.00       3.05       0.26       0.00       0.27        0.54     0.36   0.077
  SC_606                     1.93       0.00       0.00       1.90       0.02       0.00       0.02        0.00     0.00   0.012
  SC_607                     1.98       0.00       0.00       1.97       0.01       0.00       0.01        0.01     0.01   0.004
  SC_608                     2.28       0.00       0.00       2.23       0.03       0.00       0.03        0.13     0.06   0.013
  SC_609                     2.33       0.00       0.00       2.08       0.18       0.00       0.18        0.59     0.42   0.078
  SC_61                      2.94       0.00       0.00       1.87       0.16       0.00       0.16        0.33     0.51   0.055
  SC_610                     2.31       0.00       0.00       1.93       0.28       0.00       0.28        0.18     0.13   0.123
  SC_611                     3.03       0.00       0.00       1.57       0.99       0.01       1.00        0.43     0.30   0.329
  SC_612                     4.54       0.00       0.00       4.29       0.19       0.00       0.19        0.75     0.55   0.043
  SC_613                     2.18       0.00       0.00       1.22       0.79       0.00       0.79        0.02     0.02   0.361
  SC_614                     7.47       0.00       0.00       4.52       0.76       0.05       0.82        3.13     1.80   0.109
  SC_615                     2.14       0.00       0.00       1.34       0.44       0.00       0.44        0.23     0.11   0.207
  SC_616                     4.67       0.00       0.00       4.32       0.21       0.00       0.21        0.34     0.23   0.046
  SC_617                     7.00       0.00       0.00       3.92       1.02       0.03       1.05        2.51     1.49   0.151
  SC_618                     1.96       0.00       0.00       1.96       0.00       0.00       0.00        0.00     0.00   0.000
  SC_619                     0.50       0.00       0.00       0.50       0.00       0.00       0.00        0.00     0.00   0.000
  SC_62                      1.78       0.00       0.00       0.72       0.29       0.00       0.29        0.15     0.34   0.163
  SC_620                    10.09       0.00       0.00       2.77       0.00       1.14       1.14        0.46     0.75   0.113
  SC_621                    13.82       0.00       0.00       3.26       0.00       1.71       1.71        3.46     2.69   0.124
  SC_622                    15.27       0.00       0.00       2.72       0.00       3.71       3.71        1.01     0.78   0.243
  SC_623                     1.12       0.00       0.00       1.12       0.00       0.00       0.00        0.00     0.00   0.000
  SC_624                     0.84       0.00       0.00       0.80       0.03       0.00       0.03        0.05     0.03   0.034
  SC_625                     1.55       0.00       0.00       1.54       0.01       0.00       0.01        0.01     0.01   0.006
  SC_63                      0.19       0.00       0.00       0.09       0.01       0.00       0.01        0.00     0.00   0.057
  SC_64                      4.21       0.00       0.00       2.75       0.22       0.03       0.25        0.30     0.40   0.060
  SC_65                      0.97       0.00       0.00       0.94       0.02       0.00       0.02        0.03     0.02   0.025
  SC_66                      0.30       0.00       0.00       0.25       0.01       0.00       0.01        0.00     0.00   0.021
  SC_67                      2.01       0.00       0.00       1.67       0.12       0.00       0.12        0.14     0.11   0.058
  SC_68                      1.03       0.00       0.00       1.01       0.01       0.00       0.01        0.01     0.01   0.014
  SC_69                      1.98       0.00       0.00       1.90       0.06       0.00       0.06        0.12     0.12   0.029
  SC_7                       8.78       0.00       0.00       2.71       0.21       0.08       0.29        0.65     1.14   0.033
  SC_70                      0.82       0.00       0.00       0.66       0.04       0.00       0.04        0.02     0.05   0.044
  SC_71                      1.18       0.00       0.00       1.13       0.03       0.00       0.03        0.02     0.02   0.027
  SC_72                      7.87       0.00       0.00       3.61       0.65       0.12       0.78        0.37     0.42   0.099
  SC_73                      6.87       0.00       0.00       3.90       0.37       0.05       0.43        0.22     0.26   0.062
  SC_74                      0.75       0.00       0.00       0.54       0.05       0.00       0.05        0.02     0.03   0.062
  SC_75                      1.34       0.00       0.00       1.03       0.13       0.00       0.13        0.07     0.08   0.098
  SC_76                      2.33       0.00       0.00       1.93       0.13       0.00       0.13        0.13     0.16   0.054
  SC_77                      1.02       0.00       0.00       0.90       0.04       0.00       0.04        0.05     0.05   0.043
  SC_78                      0.94       0.00       0.00       0.72       0.01       0.00       0.01        0.00     0.01   0.012
  SC_79                      0.95       0.00       0.00       0.92       0.02       0.00       0.02        0.02     0.03   0.025
  SC_8                       9.11       0.00       0.00       3.13       0.00       0.22       0.22        0.14     0.33   0.024
  SC_80                     12.81       0.00       0.00       2.85       0.76       0.54       1.30        0.80     0.82   0.102
  SC_81                      0.78       0.00       0.00       0.72       0.00       0.00       0.00        0.00     0.00   0.005
  SC_82                      0.92       0.00       0.00       0.84       0.02       0.00       0.02        0.02     0.04   0.024
  SC_83                      0.97       0.00       0.00       0.93       0.03       0.00       0.03        0.06     0.04   0.034
  SC_84                      4.02       0.00       0.00       3.89       0.10       0.00       0.10        0.18     0.16   0.025
  SC_85                      1.10       0.00       0.00       1.03       0.05       0.00       0.05        0.03     0.03   0.043
  SC_86                      0.72       0.00       0.00       0.68       0.02       0.00       0.02        0.04     0.06   0.026
  SC_87                      2.57       0.00       0.00       2.37       0.13       0.00       0.13        0.07     0.05   0.050
  SC_88                      1.34       0.00       0.00       1.12       0.10       0.00       0.10        0.09     0.15   0.074
  SC_89                      0.96       0.00       0.00       0.92       0.02       0.00       0.02        0.02     0.03   0.023
  SC_9                       8.38       0.00       0.00       2.08       0.15       0.14       0.29        0.17     0.33   0.035
  SC_90                      5.06       0.00       0.00       2.82       0.05       0.01       0.06        0.17     0.25   0.012
  SC_91                      0.47       0.00       0.00       0.46       0.00       0.00       0.00        0.01     0.01   0.006
  SC_92                      1.06       0.00       0.00       0.99       0.04       0.00       0.04        0.04     0.06   0.035
  SC_93                      1.29       0.00       0.00       1.20       0.06       0.00       0.06        0.10     0.06   0.047
  SC_94                      2.48       0.00       0.00       2.45       0.03       0.00       0.03        0.02     0.01   0.011
  SC_95                      1.14       0.00       0.00       0.97       0.04       0.00       0.04        0.05     0.08   0.037
  SC_96                      0.67       0.00       0.00       0.64       0.01       0.00       0.01        0.01     0.02   0.015
  SC_97                      0.73       0.00       0.00       0.72       0.01       0.00       0.01        0.00     0.00   0.010
  SC_98                      3.92       0.00       0.00       3.71       0.01       0.00       0.01        0.00     0.00   0.002
  SC_99                      1.69       0.00       0.00       1.64       0.04       0.00       0.04        0.03     0.03   0.024
  
  
  ******************
  Node Depth Summary
  ******************
  
  ---------------------------------------------------------------------------------
                                 Average  Maximum  Maximum  Time of Max    Reported
                                   Depth    Depth      HGL   Occurrence   Max Depth
  Node                 Type       Meters   Meters   Meters  days hr:min      Meters
  ---------------------------------------------------------------------------------
  Ex_4                 OUTFALL      0.00     0.00     0.00     0  00:59        0.00
  J_CUL048             OUTFALL      0.03     0.13    17.73     0  00:59        0.09
  J_CUL2_001           OUTFALL     17.97    18.30     8.30     0  00:59       18.29
  Ab_Culvert_Inlet     STORAGE      4.92     5.25     1.90     0  00:01        5.04
  Ab_Outlet            STORAGE      5.20     5.97     2.45     0  00:01        5.34
  Ab_PROP_DS           STORAGE      7.01    14.91    10.51     0  00:00        7.02
  Ab_PROP_US           STORAGE      6.08     7.19     2.81     0  00:00        6.12
  Ex_1                 STORAGE      0.00     0.03    50.56     0  00:59        0.01
  Ex_10                STORAGE      0.00     0.04    25.17     0  00:59        0.01
  Ex_11                STORAGE      0.01     0.07    24.50     0  00:59        0.03
  Ex_12                STORAGE      0.01     0.13    22.15     0  00:59        0.06
  Ex_13                STORAGE      0.00     0.00    23.13     0  00:59        0.00
  Ex_14                STORAGE      0.00     0.04     5.49     0  00:59        0.01
  Ex_15                STORAGE      0.00     0.02     6.09     0  00:59        0.00
  Ex_17                STORAGE      0.00     0.02    30.31     0  00:59        0.01
  Ex_18                STORAGE      0.00     0.01     5.43     0  00:59        0.00
  Ex_19                STORAGE      0.00     0.02     6.56     0  00:59        0.01
  Ex_2                 STORAGE      0.00     0.05    30.69     0  00:59        0.01
  Ex_20                STORAGE      0.01     0.03     5.51     0  00:59        0.02
  Ex_21                STORAGE      0.01     0.07     5.27     0  00:59        0.03
  Ex_22                STORAGE      0.06     0.41     6.04     0  00:59        0.16
  Ex_23                STORAGE      0.02     0.19     3.24     0  00:59        0.08
  Ex_24                STORAGE      0.02     0.23     3.50     0  00:59        0.09
  Ex_27                STORAGE      0.03     0.17     5.03     0  00:59        0.08
  Ex_28                STORAGE      0.00     0.02     4.93     0  00:59        0.00
  Ex_29                STORAGE      0.01     0.03     4.05     0  00:59        0.01
  Ex_3                 STORAGE      0.01     0.19    24.84     0  00:59        0.06
  Ex_30                STORAGE      0.00     0.01     4.30     0  00:59        0.01
  Ex_31                STORAGE      0.01     0.06    15.04     0  00:59        0.03
  Ex_32                STORAGE      0.01     0.05    12.39     0  00:59        0.03
  Ex_33                STORAGE      0.01     0.04     9.08     0  00:59        0.02
  Ex_34                STORAGE      2.73     6.73    11.70     0  00:08        4.82
  Ex_36                STORAGE      0.00     0.00     4.51     0  00:59        0.00
  Ex_37                STORAGE      0.01     0.04    17.41     0  00:59        0.02
  Ex_38                STORAGE      0.92     1.18     1.62     0  00:59        1.16
  Ex_42                STORAGE     13.19    17.01    11.26     0  00:07       15.11
  Ex_5                 STORAGE      0.00     0.00    21.65     0  00:59        0.00
  Ex_6                 STORAGE      0.03     0.30    22.06     0  00:59        0.10
  Ex_7                 STORAGE      0.01     0.05    22.91     0  00:59        0.02
  Ex_8                 STORAGE      0.00     0.01    27.83     0  00:59        0.00
  Ex_9                 STORAGE      0.00     0.01    28.10     0  00:59        0.00
  Groundwater_node     STORAGE      0.22     1.62     8.62     0  00:59        0.72
  J_037                STORAGE      0.04     0.11     1.63     0  00:34        0.11
  J_042                STORAGE      0.02     0.14     5.38     0  00:59        0.04
  J_043                STORAGE      0.00     0.00     4.92     0  00:59        0.00
  J_bridge_001         STORAGE      0.04     0.12     9.60     0  00:59        0.11
  J_bridge_002         STORAGE      0.02     0.07     8.45     0  00:59        0.07
  J_bridge_003         STORAGE      0.00     0.02     2.11     0  00:59        0.01
  J_bridge_004         STORAGE      0.00     0.00     1.85     0  00:59        0.00
  J_CUL001             STORAGE      4.08     9.77    13.11     0  00:09        7.70
  J_CUL002             STORAGE      3.02     3.59     7.03     0  00:29        3.56
  J_CUL003             STORAGE      0.99     1.44     7.04     0  00:29        1.43
  J_CUL004             STORAGE      0.71     1.13     6.96     0  00:36        1.10
  J_CUL005             STORAGE      0.05     0.25     6.70     0  00:59        0.21
  J_CUL006             STORAGE      0.02     0.14     5.30     0  00:59        0.06
  J_CUL007             STORAGE      0.11     0.57    10.07     0  00:59        0.35
  J_CUL008             STORAGE      0.01     0.07     9.37     0  00:59        0.04
  J_CUL009             STORAGE      0.62     1.04     6.94     0  00:33        0.99
  J_CUL010             STORAGE      0.32     0.66     6.86     0  00:38        0.65
  J_CUL011             STORAGE      0.09     0.38     7.73     0  00:59        0.24
  J_CUL012             STORAGE      0.01     0.06     6.91     0  00:59        0.04
  J_CUL013             STORAGE      0.11     0.37     7.02     0  00:59        0.28
  J_CUL014             STORAGE      0.01     0.06     6.46     0  00:59        0.03
  J_CUL015             STORAGE      0.01     0.04     9.74     0  00:59        0.03
  J_CUL016             STORAGE      0.08     0.41    10.21     0  00:59        0.29
  J_CUL017             STORAGE      0.00     0.01     7.91     0  00:59        0.00
  J_CUL018             STORAGE      0.01     0.07     8.55     0  00:59        0.03
  J_CUL019             STORAGE      0.03     0.16    14.41     0  00:59        0.07
  J_CUL020             STORAGE      0.04     0.13    12.75     0  00:59        0.09
  J_CUL021             STORAGE      0.00     0.00    13.17     0  00:00        0.00
  J_CUL022             STORAGE      0.00     0.03    12.74     0  00:59        0.00
  J_CUL023             STORAGE      0.00     0.04    12.15     0  00:59        0.03
  J_CUL024             STORAGE      0.02     0.12    16.91     0  00:59        0.10
  J_CUL025             STORAGE      0.04     0.20    28.88     0  00:59        0.16
  J_CUL026             STORAGE      0.08     0.37    29.47     0  00:59        0.31
  J_CUL027             STORAGE      0.00     0.00    31.45     0  00:59        0.00
  J_CUL028             STORAGE      0.01     0.05    30.79     0  00:59        0.02
  J_CUL029             STORAGE      0.03     0.11    41.13     0  00:59        0.09
  J_CUL030             STORAGE      0.00     0.01    40.38     0  00:59        0.01
  J_CUL031             STORAGE      0.01     0.07    37.69     0  00:59        0.03
  J_CUL032             STORAGE      0.00     0.00    37.27     0  00:59        0.00
  J_CUL033             STORAGE      0.03     0.16    33.94     0  00:59        0.07
  J_CUL034             STORAGE      0.00     0.00    33.70     0  00:59        0.00
  J_CUL035             STORAGE      0.09     0.31    12.82     0  00:59        0.29
  J_CUL036             STORAGE      0.00     0.02    12.52     0  00:59        0.02
  J_CUL037             STORAGE      0.10     0.34    21.98     0  00:59        0.24
  J_CUL038             STORAGE      0.00     0.03    20.22     0  00:59        0.02
  J_CUL039             STORAGE      0.02     0.18     6.55     0  00:59        0.07
  J_CUL040             STORAGE      0.00     0.02     6.21     0  00:59        0.01
  J_CUL041             STORAGE      0.01     0.06     7.36     0  00:59        0.03
  J_CUL042             STORAGE      0.15     0.55     7.89     0  00:54        0.55
  J_CUL045             STORAGE      0.13     0.66    11.57     0  00:56        0.57
  J_CUL046             STORAGE      0.01     0.04    10.45     0  00:59        0.01
  J_CUL047             STORAGE      0.05     0.15    18.00     0  00:59        0.11
  J_CUL049             STORAGE      0.03     0.12    22.26     0  00:59        0.10
  J_CUL050             STORAGE      0.00     0.01    21.54     0  00:59        0.01
  J_CUL051             STORAGE      0.05     0.21    21.60     0  00:47        0.19
  J_CUL052             STORAGE      0.00     0.01    21.25     0  00:59        0.01
  J_CUL053             STORAGE      0.02     0.15    14.39     0  00:59        0.07
  J_CUL054             STORAGE      0.00     0.00    14.18     0  00:59        0.00
  J_CUL055             STORAGE      0.10     0.41    19.01     0  00:58        0.34
  J_CUL056             STORAGE      0.00     0.02    18.47     0  00:59        0.01
  J_CUL057             STORAGE      0.00     0.01     5.37     0  00:59        0.00
  J_CUL058             STORAGE      0.02     0.16     5.82     0  00:59        0.06
  J_CUL060             STORAGE      0.08     0.44     7.81     0  00:59        0.27
  J_CUL061             STORAGE      0.01     0.06     7.12     0  00:59        0.02
  J_CUL062             STORAGE      0.05     0.18     7.87     0  00:59        0.14
  J_CUL063             STORAGE      0.02     0.27     7.81     0  00:59        0.10
  J_CUL064             STORAGE      0.01     0.12     9.77     0  00:59        0.05
  J_CUL065             STORAGE      0.00     0.01     9.51     0  00:59        0.00
  J_CUL066             STORAGE      0.09     0.39    14.87     0  00:59        0.26
  J_CUL067             STORAGE      0.01     0.05    14.22     0  00:59        0.03
  J_CUL068             STORAGE      0.15     0.57    14.25     0  00:47        0.47
  J_CUL069             STORAGE      0.02     0.10    13.55     0  00:59        0.08
  J_CUL070             STORAGE      0.06     0.26    21.44     0  00:59        0.16
  J_CUL071             STORAGE      0.00     0.02    20.70     0  00:59        0.01
  J_CUL072             STORAGE      0.01     0.07    28.68     0  00:59        0.03
  J_CUL073             STORAGE      0.00     0.00    28.33     0  00:59        0.00
  J_CUL074             STORAGE      0.01     0.07    35.80     0  00:59        0.04
  J_CUL075             STORAGE      0.00     0.00    35.58     0  00:59        0.00
  J_CUL076             STORAGE      0.01     0.09    31.81     0  00:59        0.02
  J_CUL077             STORAGE      0.03     0.28    32.38     0  00:59        0.13
  J_CUL078             STORAGE      0.01     0.08    33.08     0  00:59        0.05
  J_CUL079             STORAGE      0.07     0.40    34.40     0  00:59        0.27
  J_CUL080             STORAGE      0.16     0.79    15.12     0  00:53        0.56
  J_CUL081             STORAGE      0.02     0.12    14.12     0  00:59        0.06
  J_CUL2_002           STORAGE     14.42    16.80     9.99     0  00:00       16.51
  J_CUL2_003           STORAGE      0.03     0.30     6.39     0  00:59        0.13
  J_CUL2_004           STORAGE      0.01     0.13     5.50     0  00:59        0.02
  J_CUL2_005           STORAGE      0.00     0.00     8.96     0  00:00        0.00
  J_CUL2_006           STORAGE      0.00     0.00     8.88     0  00:00        0.00
  J_CUL2_007           STORAGE      0.09     0.49     9.56     0  00:59        0.23
  J_CUL2_008           STORAGE      0.00     0.02     8.20     0  00:59        0.01
  J_CUL2_009           STORAGE      0.02     0.13     6.33     0  00:59        0.06
  J_CUL2_010           STORAGE      0.03     0.10     6.46     0  00:59        0.07
  J_CUL2_011           STORAGE      0.01     0.05     3.65     0  00:59        0.02
  J_CUL2_012           STORAGE      0.05     0.25     3.61     0  00:59        0.12
  J_CUL2_013           STORAGE      0.02     0.10     3.24     0  00:59        0.05
  J_CUL2_014           STORAGE      0.01     0.05     3.13     0  00:59        0.02
  J_CUL2_015           STORAGE      0.05     0.26    10.00     0  00:59        0.17
  J_CUL2_016           STORAGE      0.03     0.22     8.87     0  00:59        0.11
  J_CUL2_017           STORAGE      0.01     0.09     8.73     0  00:59        0.04
  J_CUL2_018           STORAGE      0.08     0.30     8.73     0  00:59        0.26
  J_CUL2_019           STORAGE      0.00     0.03     3.03     0  00:59        0.01
  J_CUL2_020           STORAGE      4.19    12.02    14.97     0  00:03        8.48
  J_CUL2_021           STORAGE      0.00     0.06     8.83     0  00:59        0.01
  J_CUL2_022           STORAGE      0.00     0.00     9.00     0  00:00        0.00
  J_CUL2_023           STORAGE      0.00     0.00    18.16     0  00:59        0.00
  J_CUL2_024           STORAGE      6.64    10.83    11.57     0  00:02        9.77
  J_CUL2_025           STORAGE      0.00     0.00     6.08     0  00:00        0.00
  J_CUL2_026           STORAGE      0.00     0.00     5.25     0  00:59        0.00
  J_CUL2_027           STORAGE      0.00     0.00     4.46     0  00:59        0.00
  J_CUL2_028           STORAGE      1.57     1.69     1.70     0  00:59        1.67
  J_CUL2_029           STORAGE      2.64     8.16    13.04     0  00:08        5.98
  J_CUL2_030           STORAGE     13.11    16.20    10.59     0  00:11       15.76
  J_CUL2_031           STORAGE      0.00     0.00    32.88     0  00:00        0.00
  J_CUL2_032           STORAGE      0.00     0.00    32.64     0  00:00        0.00
  J_CUL2_033           STORAGE      0.00     0.00    31.45     0  00:00        0.00
  J_CUL2_034           STORAGE      0.00     0.00    32.11     0  00:00        0.00
  J_CUL2_035           STORAGE      0.00     0.00    32.62     0  00:00        0.00
  J_CUL2_036           STORAGE      0.00     0.00    33.00     0  00:00        0.00
  J_CUL2_037           STORAGE      0.00     0.00     6.94     0  00:00        0.00
  J_CUL2_038           STORAGE      0.00     0.00     6.71     0  00:00        0.00
  J_CUL2_039           STORAGE      0.00     0.01     5.48     0  00:59        0.00
  J_CUL2_040           STORAGE      0.00     0.00     6.67     0  00:00        0.00
  J_CUL2_041           STORAGE      0.00     0.00     6.74     0  00:00        0.00
  J_CUL2_042           STORAGE      0.00     0.00    13.31     0  00:00        0.00
  J_CUL2_043           STORAGE      0.00     0.00    12.15     0  00:00        0.00
  J_CUL2_044           STORAGE      0.00     0.00     6.29     0  00:00        0.00
  J_CUL2_045           STORAGE      0.00     0.00     7.14     0  00:00        0.00
  J_CUL2_046           STORAGE      0.00     0.00     7.50     0  00:00        0.00
  J_CUL2_047           STORAGE      0.00     0.00     8.15     0  00:00        0.00
  J_CUL2_048           STORAGE      0.00     0.00    11.10     0  00:00        0.00
  J_CUL2_049           STORAGE      0.00     0.00     8.64     0  00:00        0.00
  J_CUL2_050           STORAGE      0.00     0.00     6.75     0  00:59        0.00
  J_CUL2_051           STORAGE      0.00     0.00     6.44     0  00:00        0.00
  J_CUL2_052           STORAGE      0.00     0.00     8.70     0  00:00        0.00
  J_CUL2_053           STORAGE      0.00     0.00    10.89     0  00:00        0.00
  J_CUL2_054           STORAGE      0.00     0.00     8.90     0  00:00        0.00
  J_CUL2_055           STORAGE      0.00     0.00    10.42     0  00:00        0.00
  J_CUL2_056           STORAGE      0.00     0.00    12.07     0  00:00        0.00
  J_CUL2_057           STORAGE      0.00     0.00     7.58     0  00:00        0.00
  J_CUL2_058           STORAGE      0.00     0.00     7.54     0  00:00        0.00
  J_CUL2_059           STORAGE      0.01     0.07     4.59     0  00:59        0.02
  J_CUL2_060           STORAGE      0.00     0.00     6.47     0  00:00        0.00
  J_CUL2_061           STORAGE      0.00     0.00     6.86     0  00:00        0.00
  J_CUL2_062           STORAGE      0.00     0.00    31.72     0  00:00        0.00
  J_CUL2_063           STORAGE      0.00     0.00    31.95     0  00:00        0.00
  J_CUL2_064           STORAGE      0.00     0.00    31.89     0  00:00        0.00
  J_CUL2_065           STORAGE      0.00     0.00    32.79     0  00:00        0.00
  J_CUL2_066           STORAGE      6.07     9.18     4.79     0  00:00        6.37
  J_CUL2_067           STORAGE      6.07     9.12     4.73     0  00:00        6.92
  J_CUL2_068           STORAGE     12.62    16.64    11.45     0  00:07       14.40
  J_CUL2_069           STORAGE      0.00     0.00    -4.38     0  00:00        0.00
  J_CUL2_070           STORAGE      0.00     0.00    -4.38     0  00:00        0.00
  J_CUL2_071           STORAGE      6.55    14.89    10.51     0  00:00        6.92
  J_CUL2_072           STORAGE      6.55    14.89    10.51     0  00:00        6.92
  J10                  STORAGE      2.04     2.63     2.87     0  00:59        2.57
  J100                 STORAGE      0.00     0.00   154.00     0  00:59        0.00
  J101                 STORAGE      0.01     0.05   164.94     0  00:59        0.04
  J102                 STORAGE      0.00     0.00     5.34     0  00:59        0.00
  J103                 STORAGE      0.00     0.01   144.12     0  00:59        0.01
  J104                 STORAGE      0.00     0.02   139.43     0  00:59        0.01
  J105                 STORAGE      0.01     0.04   194.58     0  00:59        0.03
  J106                 STORAGE      0.05     0.40   125.75     0  00:59        0.23
  J107                 STORAGE      0.00     0.00   149.29     0  00:59        0.00
  J108                 STORAGE      0.00     0.02   208.52     0  00:59        0.01
  J109                 STORAGE      0.01     0.04     8.35     0  00:59        0.02
  J11                  STORAGE      1.97     2.40     3.10     0  00:59        2.36
  J110                 STORAGE      0.00     0.02   200.22     0  00:59        0.01
  J111                 STORAGE      0.00     0.00   149.59     0  00:59        0.00
  J112                 STORAGE      0.00     0.02   194.00     0  00:59        0.00
  J113                 STORAGE      0.04     0.36   127.70     0  00:59        0.21
  J114                 STORAGE      0.00     0.01   149.39     0  00:59        0.01
  J115                 STORAGE      0.01     0.13    67.63     0  00:59        0.06
  J116                 STORAGE      0.06     0.34    36.96     0  00:59        0.19
  J117                 STORAGE      0.06     0.32   120.63     0  00:59        0.22
  J118                 STORAGE      0.00     0.01   169.27     0  00:59        0.00
  J119                 STORAGE      0.01     0.02    51.00     0  00:59        0.02
  J12                  STORAGE      0.45     1.08     2.74     0  00:59        0.99
  J120                 STORAGE      0.02     0.06   147.92     0  00:59        0.05
  J121                 STORAGE      0.06     0.52    79.73     0  00:59        0.29
  J122                 STORAGE      0.00     0.03   208.54     0  00:59        0.01
  J123                 STORAGE      0.14     0.41   160.45     0  00:59        0.36
  J124                 STORAGE      0.45     1.16   144.60     0  00:59        1.06
  J125                 STORAGE      0.18     0.35   148.38     0  00:59        0.34
  J126                 STORAGE      0.04     0.09   165.08     0  00:59        0.08
  J127                 STORAGE      0.01     0.02   153.99     0  00:59        0.01
  J128                 STORAGE      0.05     0.11   147.86     0  00:59        0.10
  J129                 STORAGE      0.00     0.00   202.79     0  00:59        0.00
  J13                  STORAGE      0.00     0.01     2.31     0  00:59        0.01
  J130                 STORAGE      0.01     0.01   164.67     0  00:59        0.01
  J131                 STORAGE      0.00     0.01   120.29     0  00:59        0.01
  J132                 STORAGE      0.00     0.03   210.43     0  00:59        0.01
  J133                 STORAGE      0.00     0.00   189.22     0  00:59        0.00
  J134                 STORAGE      0.00     0.02   109.23     0  00:59        0.01
  J135                 STORAGE      0.00     0.07   208.88     0  00:59        0.02
  J136                 STORAGE      0.00     0.00   208.46     0  00:59        0.00
  J137                 STORAGE      0.01     0.02   154.16     0  00:59        0.02
  J138                 STORAGE      0.01     0.09   211.44     0  00:59        0.03
  J139                 STORAGE      0.00     0.02   211.59     0  00:59        0.01
  J14                  STORAGE      0.00     0.00     3.29     0  00:59        0.00
  J140                 STORAGE      0.01     0.02   179.40     0  00:59        0.01
  J141                 STORAGE      0.00     0.03   154.33     0  00:59        0.01
  J142                 STORAGE      0.01     0.08   208.46     0  00:59        0.03
  J143                 STORAGE      0.00     0.01   153.69     0  00:59        0.01
  J144                 STORAGE      0.00     0.03   209.61     0  00:59        0.01
  J145                 STORAGE      0.00     0.00   219.78     0  00:59        0.00
  J146                 STORAGE      0.00     0.00   148.74     0  00:59        0.00
  J147                 STORAGE      0.00     0.00   170.45     0  00:59        0.00
  J148                 STORAGE      0.01     0.03   201.76     0  00:59        0.02
  J149                 STORAGE      0.01     0.09   190.58     0  00:59        0.04
  J15                  STORAGE      0.00     0.00     5.14     0  00:59        0.00
  J150                 STORAGE      0.00     0.00   170.32     0  00:59        0.00
  J151                 STORAGE      0.00     0.00   172.83     0  00:59        0.00
  J152                 STORAGE      0.00     0.01   172.45     0  00:59        0.00
  J153                 STORAGE      0.00     0.03   194.61     0  00:59        0.01
  J154                 STORAGE      0.00     0.01   202.95     0  00:59        0.00
  J155                 STORAGE      0.02     0.18   188.60     0  00:59        0.08
  J156                 STORAGE      0.01     0.14   189.58     0  00:59        0.03
  J157                 STORAGE      0.01     0.04   144.31     0  00:59        0.02
  J158                 STORAGE      0.01     0.14   202.01     0  00:59        0.05
  J159                 STORAGE      0.00     0.02   181.72     0  00:59        0.01
  J16                  STORAGE      0.00     0.01     7.50     0  00:59        0.01
  J160                 STORAGE      0.15     0.51   189.42     0  00:59        0.48
  J161                 STORAGE      0.00     0.01   103.82     0  00:59        0.01
  J162                 STORAGE      0.00     0.00   158.65     0  00:59        0.00
  J163                 STORAGE      0.03     0.21   188.34     0  00:59        0.13
  J164                 STORAGE      0.00     0.01   174.05     0  00:59        0.00
  J165                 STORAGE      0.03     0.14   189.54     0  00:59        0.11
  J166                 STORAGE      0.00     0.02   183.69     0  00:59        0.01
  J167                 STORAGE      0.01     0.07   175.07     0  00:59        0.03
  J168                 STORAGE      0.02     0.11   166.91     0  00:59        0.07
  J169                 STORAGE      0.01     0.07   168.56     0  00:59        0.04
  J17                  STORAGE      0.00     0.01    11.89     0  00:59        0.00
  J170                 STORAGE      0.00     0.00    66.46     0  00:59        0.00
  J171                 STORAGE      0.09     0.55   164.73     0  00:59        0.36
  J172                 STORAGE      0.02     0.13   213.11     0  00:59        0.12
  J173                 STORAGE      0.00     0.00   185.00     0  00:59        0.00
  J174                 STORAGE      0.00     0.04   225.67     0  00:59        0.02
  J175                 STORAGE      0.00     0.00   113.14     0  00:59        0.00
  J176                 STORAGE      0.01     0.07   216.58     0  00:59        0.05
  J177                 STORAGE      0.01     0.06   179.40     0  00:59        0.03
  J178                 STORAGE      0.03     0.27   181.40     0  00:59        0.13
  J179                 STORAGE      0.01     0.11   204.25     0  00:59        0.06
  J18                  STORAGE      0.00     0.02    13.17     0  00:59        0.01
  J180                 STORAGE      0.00     0.00    45.64     0  00:59        0.00
  J181                 STORAGE      0.00     0.00   194.98     0  00:00        0.00
  J182                 STORAGE      0.00     0.01   204.36     0  00:59        0.01
  J183                 STORAGE      0.03     0.29   190.97     0  00:59        0.15
  J184                 STORAGE      0.01     0.02   157.46     0  00:59        0.02
  J185                 STORAGE      0.01     0.05   229.38     0  00:59        0.04
[...]
  C_bridge_001            1.00   0.00  0.00  0.00  0.03  0.97  0.00  0.00  0.00  0.00
  C_Bridge_022            1.00   0.01  0.00  0.00  0.99  0.00  0.00  0.00  0.00  0.00
  C_Bridge_022_Road       1.00   1.00  0.00  0.00  0.00  0.00  0.00  0.00  0.00  0.00
  C_CUL001                1.00   0.00  0.00  0.00  0.96  0.04  0.00  0.00  0.00  0.02
  C_CUL002                1.00   0.00  0.00  0.00  1.00  0.00  0.00  0.00  0.00  0.02
  C_CUL003                1.00   0.00  0.00  0.00  0.27  0.73  0.00  0.00  0.00  0.85
  C_CUL004                1.00   0.00  0.00  0.00  1.00  0.00  0.00  0.00  0.00  0.00
  C_CUL005                1.00   0.00  0.00  0.00  0.92  0.08  0.00  0.00  0.00  0.06
  C_CUL006                1.00   0.00  0.00  0.00  0.00  1.00  0.00  0.00  0.00  0.82
  C_CUL007                1.00   0.00  0.00  0.00  0.16  0.84  0.00  0.00  0.00  0.63
  C_CUL008                1.00   0.00  0.00  0.00  0.09  0.90  0.00  0.00  0.00  0.50
  C_CUL009                1.00   0.00  0.00  0.00  0.07  0.93  0.00  0.00  0.00  0.09
  C_CUL009-2              1.00   0.00  0.00  0.00  0.28  0.72  0.00  0.00  0.00  0.04
  C_CUL010                1.00   0.93  0.07  0.00  0.00  0.00  0.00  0.00  0.00  0.00
  C_CUL010a               1.00   0.01  0.00  0.00  0.55  0.44  0.00  0.00  0.00  0.96
  C_CUL011                1.00   0.00  0.00  0.00  0.11  0.89  0.00  0.00  0.00  0.00
  C_CUL012                1.00   0.00  0.00  0.00  0.05  0.95  0.00  0.00  0.00  0.77
  C_CUL014                1.00   0.03  0.39  0.00  0.58  0.00  0.00  0.00  0.00  0.58
  C_CUL015                1.00   0.00  0.00  0.00  0.04  0.96  0.00  0.00  0.00  0.02
  C_CUL016                1.00   0.00  0.00  0.00  0.21  0.78  0.00  0.00  0.00  0.06
  C_CUL017                1.00   0.00  0.00  0.00  1.00  0.00  0.00  0.00  0.00  0.00
  C_CUL018                1.00   0.00  0.00  0.00  1.00  0.00  0.00  0.00  0.00  0.00
  C_CUL019                1.00   0.06  0.00  0.00  0.00  0.94  0.00  0.00  0.00  0.06
  C_CUL020                1.00   0.00  0.00  0.00  0.15  0.85  0.00  0.00  0.00  0.40
  C_CUL021                1.00   0.00  0.00  0.00  1.00  0.00  0.00  0.00  0.00  0.00
  C_CUL024                1.00   0.00  0.00  0.00  0.34  0.65  0.00  0.00  0.00  0.49
  C_CUL025                1.00   0.00  0.00  0.00  0.98  0.02  0.00  0.00  0.00  0.93
  C_CUL026                1.00   0.00  0.00  0.00  0.01  0.99  0.00  0.00  0.00  0.07
  C_CUL027                1.00   0.01  0.00  0.00  0.42  0.57  0.00  0.00  0.00  0.00
  C_CUL028                1.00   0.00  0.00  0.00  0.85  0.15  0.00  0.00  0.00  0.02
  C_CUL029                1.00   0.00  0.00  0.00  0.48  0.52  0.00  0.00  0.00  0.00
  C_CUL030                1.00   0.00  0.00  0.00  0.10  0.90  0.00  0.00  0.00  0.21
  C_CUL031                1.00   0.00  0.00  0.00  0.07  0.93  0.00  0.00  0.00  0.60
  C_CUL032                1.00   0.00  0.00  0.00  0.13  0.86  0.00  0.00  0.00  0.00
  C_CUL033                1.00   0.00  0.00  0.00  0.03  0.97  0.00  0.00  0.00  0.70
  C_CUL033a               1.00   0.00  0.00  0.00  0.80  0.19  0.00  0.00  0.00  0.11
  C_CUL034                1.00   0.00  0.00  0.00  0.20  0.79  0.00  0.00  0.00  0.10
  C_CUL035                1.00   0.00  0.00  0.00  0.00  0.00  0.00  1.00  0.00  0.85
  C_CUL036                1.00   0.01  0.00  0.00  0.88  0.12  0.00  0.00  0.00  0.00
  C_CUL037                1.00   0.00  0.00  0.00  0.24  0.76  0.00  0.00  0.00  0.00
  C_CUL038                1.00   0.00  0.00  0.00  0.24  0.76  0.00  0.00  0.00  0.59
  C_CUL039                1.00   0.00  0.00  0.00  0.00  0.99  0.00  0.00  0.00  0.83
  C_CUL040                1.00   0.00  0.00  0.00  0.00  0.00  0.00  1.00  0.00  0.75
  C_CUL2_001              1.00   1.00  0.00  0.00  0.00  0.00  0.00  0.00  0.00  0.00
  C_CUL2_002              1.00   0.13  0.00  0.00  0.00  0.00  0.00  0.87  0.00  0.00
  C_CUL2_003              1.00   0.17  0.00  0.00  0.54  0.29  0.00  0.00  0.00  0.00
  C_CUL2_004              1.00   0.10  0.20  0.00  0.00  0.00  0.70  0.00  0.00  0.00
  C_CUL2_005              1.00   1.00  0.00  0.00  0.00  0.00  0.00  0.00  0.00  0.00
  C_CUL2_006              1.00   0.00  0.00  0.00  1.00  0.00  0.00  0.00  0.00  0.15
  C_CUL2_007              1.00   0.46  0.54  0.00  0.00  0.00  0.00  0.00  0.00  0.00
  C_CUL2_008              1.00   0.46  0.54  0.00  0.00  0.00  0.00  0.00  0.00  0.00
  C_CUL2_009              1.00   0.00  0.00  0.00  0.00  0.00  0.00  1.00  0.00  0.53
  C_CUL2_009a             1.00   0.94  0.06  0.00  0.00  0.00  0.00  0.00  0.00  0.00
  C_CUL2_010              1.00   0.14  0.00  0.00  0.00  0.00  0.00  0.86  0.00  0.31
  C_CUL2_011              1.00   0.14  0.00  0.00  0.00  0.00  0.00  0.86  0.00  0.29
  C_CUL2_012              1.00   1.00  0.00  0.00  0.00  0.00  0.00  0.00  0.00  0.00
  C_CUL2_013              1.00   0.00  0.00  0.00  0.00  0.00  0.00  1.00  0.00  0.00
  C_CUL2_014              1.00   0.17  0.83  0.00  0.00  0.00  0.00  0.00  0.00  0.00
  C_CUL2_015              1.00   0.00  0.79  0.00  0.21  0.00  0.00  0.00  0.00  0.00
  C_CUL2_016              1.00   0.00  0.00  0.00  0.00  0.00  0.00  1.00  0.00  0.97
  C_CUL2_017              1.00   0.17  0.83  0.00  0.00  0.00  0.00  0.00  0.00  0.00
  C_CUL2_018              1.00   0.17  0.83  0.00  0.00  0.00  0.00  0.00  0.00  0.00
  C_CUL2_019              1.00   0.17  0.83  0.00  0.00  0.00  0.00  0.00  0.00  0.00
  C_CUL2_020              1.00   0.17  0.83  0.00  0.00  0.00  0.00  0.00  0.00  0.00
  C_CUL2_021              1.00   0.16  0.00  0.00  0.05  0.79  0.00  0.00  0.00  0.00
  C_CUL2_022              1.00   0.35  0.00  0.00  0.13  0.52  0.00  0.00  0.06  0.00
  C_CUL2_023              1.00   0.86  0.00  0.00  0.00  0.00  0.00  0.14  0.00  0.00
  C_CUL2_024              1.00   0.87  0.00  0.00  0.00  0.12  0.00  0.00  0.00  0.00
  C_CUL2_025              1.00   0.92  0.00  0.00  0.01  0.07  0.00  0.00  0.00  0.00
  C_CUL2_026              1.00   1.00  0.00  0.00  0.00  0.00  0.00  0.00  0.00  0.00
  C_CUL2_027              1.00   1.00  0.00  0.00  0.00  0.00  0.00  0.00  0.00  0.00
  C_CUL2_028              1.00   1.00  0.00  0.00  0.00  0.00  0.00  0.00  0.00  0.00
  C_CUL2_029              1.00   1.00  0.00  0.00  0.00  0.00  0.00  0.00  0.00  0.00
  C_CUL2_030              1.00   0.46  0.54  0.00  0.00  0.00  0.00  0.00  0.00  0.00
  C_CUL2_031              1.00   0.11  0.00  0.00  0.89  0.00  0.00  0.00  0.00  0.00
  C_CUL2_032              1.00   0.46  0.54  0.00  0.00  0.00  0.00  0.00  0.00  0.00
  C_CUL2_033              1.00   0.46  0.54  0.00  0.00  0.00  0.00  0.00  0.00  0.00
  C_CUL2_034              1.00   0.46  0.54  0.00  0.00  0.00  0.00  0.00  0.00  0.00
  C_CUL2_035              1.00   0.57  0.00  0.00  0.00  0.00  0.00  0.43  0.00  0.38
  C_CUL2_036              1.00   0.18  0.10  0.00  0.58  0.00  0.14  0.00  0.00  0.08
  C_CUL2_037              1.00   0.11  0.00  0.00  0.00  0.00  0.00  0.89  0.00  0.13
  C_CUL2_038              1.00   0.37  0.00  0.00  0.59  0.05  0.00  0.00  0.00  0.00
  C_CUL2_039              1.00   0.17  0.00  0.00  0.16  0.67  0.00  0.00  0.00  0.00
  C_CUL2_040              1.00   0.00  0.36  0.00  0.64  0.00  0.00  0.00  0.64  0.00
  C_CUL2_041              1.00   0.00  0.04  0.00  0.81  0.15  0.00  0.00  0.59  0.00
  C_CUL2_042              1.00   0.00  0.25  0.00  0.75  0.00  0.00  0.00  0.75  0.00
  C_CUL2_043              1.00   0.00  0.00  0.00  0.95  0.05  0.00  0.00  0.00  0.00
  C_CUL2_044              1.00   0.06  0.15  0.00  0.78  0.00  0.00  0.00  0.74  0.00
  C_CUL2_045              1.00   0.00  0.00  0.00  1.00  0.00  0.00  0.00  0.00  0.00
  C_CUL2_046              1.00   0.00  0.00  0.00  1.00  0.00  0.00  0.00  0.61  0.00
  C_CUL2_047              1.00   0.00  0.02  0.00  0.98  0.00  0.00  0.00  0.98  0.00
  C_CUL2_048              1.00   0.00  0.02  0.00  0.98  0.00  0.00  0.00  0.98  0.00
  C_CUL2_049              1.00   0.00  0.00  0.00  1.00  0.00  0.00  0.00  0.65  0.00
  C_CUL2_050              1.00   0.00  0.07  0.00  0.93  0.00  0.00  0.00  0.93  0.00
  C_CUL2_051              1.00   0.00  0.07  0.00  0.93  0.00  0.00  0.00  0.76  0.00
  C_CUL2_052              1.00   0.03  0.00  0.00  0.97  0.00  0.00  0.00  0.61  0.00
  C_CUL2_053              1.00   0.00  0.03  0.00  0.97  0.00  0.00  0.00  0.97  0.00
  C_CUL2_054              1.00   0.01  0.00  0.00  0.98  0.01  0.00  0.00  0.68  0.00
  C_CUL2_055              1.00   0.00  0.00  0.00  0.97  0.03  0.00  0.00  0.74  0.00
  C_CUL2_056              1.00   0.05  0.14  0.00  0.82  0.00  0.00  0.00  0.00  0.00
  C_CUL2_057              1.00   0.00  0.18  0.00  0.82  0.00  0.00  0.00  0.00  0.00
  C_CUL2_058              1.00   0.00  0.10  0.00  0.90  0.00  0.00  0.00  0.00  0.00
  C_CUL2_059              1.00   0.00  0.00  0.00  1.00  0.00  0.00  0.00  0.09  0.00
  C_CUL2_060              1.00   0.00  0.15  0.00  0.85  0.00  0.00  0.00  0.64  0.00
  C_CUL2_061              1.00   0.00  0.90  0.00  0.10  0.00  0.00  0.00  0.10  0.00
  C_CUL2_062              1.00   0.00  0.09  0.00  0.91  0.00  0.00  0.00  0.91  0.00
  C_CUL2_063              1.00   0.06  0.00  0.00  0.89  0.05  0.00  0.00  0.16  0.00
  C_CUL2_064              1.00   0.02  0.00  0.00  0.68  0.30  0.00  0.00  0.15  0.00
  C_CUL2_065              1.00   0.03  0.00  0.00  0.73  0.24  0.00  0.00  0.00  0.00
  C_CUL2_066              1.00   0.00  0.06  0.00  0.94  0.00  0.00  0.00  0.94  0.00
  C_CUL2_067              1.00   0.00  0.23  0.00  0.77  0.00  0.00  0.00  0.77  0.00
  C_CUL2_068              1.00   0.06  0.00  0.00  0.94  0.00  0.00  0.00  0.00  0.00
  C_CUL2_069              1.00   0.00  0.15  0.00  0.85  0.00  0.00  0.00  0.85  0.00
  C_CUL2_070              1.00   0.02  0.00  0.00  0.98  0.00  0.00  0.00  0.00  0.00
  C_CUL2_071              1.00   0.22  0.00  0.00  0.78  0.00  0.00  0.00  0.50  0.00
  C_CUL2_072              1.00   0.43  0.00  0.00  0.57  0.00  0.00  0.00  0.19  0.00
  C_CUL2_073              1.00   0.86  0.00  0.00  0.09  0.04  0.00  0.00  0.09  0.00
  C_CUL2_074              1.00   0.88  0.00  0.00  0.04  0.08  0.00  0.00  0.00  0.00
  C_CUL2_075              1.00   0.00  0.96  0.00  0.03  0.00  0.00  0.00  0.03  0.00
  C_CUL2_076              1.00   0.00  0.06  0.00  0.94  0.00  0.00  0.00  0.94  0.00
  C_CUL2_077              1.00   0.00  0.04  0.00  0.96  0.00  0.00  0.00  0.84  0.00
  C_CUL2_078              1.00   0.03  0.00  0.00  0.97  0.00  0.00  0.00  0.55  0.00
  C_CUL2_079              1.00   0.01  0.00  0.00  0.13  0.86  0.00  0.00  0.00  0.00
  C_CUL2_080              1.00   0.01  0.00  0.00  0.95  0.04  0.00  0.00  0.54  0.00
  C_CUL2_081              1.00   0.06  0.00  0.00  0.88  0.06  0.00  0.00  0.68  0.00
  C_CUL2_082              1.00   0.07  0.00  0.00  0.80  0.12  0.00  0.00  0.29  0.00
  C_CUL2_083              1.00   0.56  0.00  0.00  0.44  0.00  0.00  0.00  0.00  0.00
  C_CUL2_084              1.00   0.11  0.89  0.00  0.00  0.00  0.00  0.00  0.00  0.00
  C_CUL2_085              1.00   0.00  0.09  0.00  0.91  0.00  0.00  0.00  0.05  0.00
  C_CUL2_086              1.00   0.02  0.00  0.00  0.93  0.05  0.00  0.00  0.30  0.00
  C_CUL2_087              1.00   0.03  0.00  0.00  0.97  0.00  0.00  0.00  0.72  0.00
  C_CUL2_088              1.00   0.00  0.12  0.00  0.88  0.00  0.00  0.00  0.88  0.00
  C_CUL2_089              1.00   0.00  0.07  0.00  0.93  0.00  0.00  0.00  0.27  0.00
  C_CUL2_090              1.00   0.00  0.00  0.00  1.00  0.00  0.00  0.00  0.26  0.00
  C_CUL2_091              1.00   0.00  0.01  0.00  0.98  0.00  0.00  0.00  0.98  0.00
  C_CUL2_092              1.00   0.00  0.00  0.00  1.00  0.00  0.00  0.00  0.82  0.00
  C_CUL2_093              1.00   0.05  0.52  0.00  0.44  0.00  0.00  0.00  0.00  0.00
  C_CUL2_094              1.00   0.57  0.36  0.00  0.08  0.00  0.00  0.00  0.00  0.00
  C_CUL2_095              1.00   0.22  0.40  0.00  0.38  0.00  0.00  0.00  0.38  0.00
  C_CUL2_096              1.00   0.12  0.00  0.00  0.78  0.10  0.00  0.00  0.02  0.00
  C_CUL2_097              1.00   0.06  0.17  0.00  0.78  0.00  0.00  0.00  0.78  0.00
  C_CUL2_098              1.00   0.17  0.08  0.00  0.75  0.00  0.00  0.00  0.75  0.00
  C_CUL2_099              1.00   0.00  0.04  0.00  0.95  0.00  0.00  0.00  0.95  0.00
  C_CUL2_100              1.00   0.00  0.78  0.00  0.22  0.00  0.00  0.00  0.15  0.00
  C_CUL2_101              1.00   1.00  0.00  0.00  0.00  0.00  0.00  0.00  0.00  0.00
  C_CUL2_102              1.00   0.22  0.78  0.00  0.00  0.00  0.00  0.00  0.00  0.00
  C_CUL2_103              1.00   0.79  0.21  0.00  0.00  0.00  0.00  0.00  0.00  0.00
  C_CUL2_104              1.00   0.07  0.00  0.00  0.93  0.00  0.00  0.00  0.00  0.00
  C_CUL2_105              1.00   0.00  0.00  0.00  1.00  0.00  0.00  0.00  0.00  0.00
  C_CUL2_106              1.00   0.00  0.00  0.00  1.00  0.00  0.00  0.00  0.00  0.00
  C_CUL2_107              1.00   0.00  0.46  0.00  0.54  0.00  0.00  0.00  0.54  0.00
  C_CUL2_108              1.00   0.00  0.01  0.00  0.99  0.00  0.00  0.00  0.79  0.00
  C_CUL2_109              1.00   0.00  0.00  0.00  1.00  0.00  0.00  0.00  0.00  0.00
  C_CUL2_110              1.00   0.00  0.00  0.00  1.00  0.00  0.00  0.00  0.00  0.00
  C_CUL2_111              1.00   0.00  0.00  0.00  1.00  0.00  0.00  0.00  0.00  0.00
  C_CUL2_112              1.00   0.00  0.00  0.00  1.00  0.00  0.00  0.00  0.00  0.00
  C_CUL2_113              1.00   0.00  0.00  0.00  1.00  0.00  0.00  0.00  0.00  0.00
  C_CUL2_114              1.00   0.00  0.00  0.00  1.00  0.00  0.00  0.00  0.00  0.00
  C_CUL2_2                1.00   0.00  0.00  0.00  1.00  0.00  0.00  0.00  0.00  0.00
  C_CUL2_4                1.00   0.00  0.00  0.00  1.00  0.00  0.00  0.00  0.00  0.00
  Channel1                1.00   0.04  0.00  0.00  0.96  0.00  0.00  0.00  0.00  0.00
  Channel2                1.00   0.11  0.69  0.00  0.19  0.00  0.00  0.00  0.18  0.00
  Channel3                1.00   0.00  0.11  0.00  0.89  0.00  0.00  0.00  0.89  0.00
  Channel4_1              1.00   0.00  0.00  0.00  1.00  0.00  0.00  0.00  0.75  0.00
  Channel4_2              1.00   0.00  0.01  0.00  0.99  0.00  0.00  0.00  0.00  0.00
  Channel5                1.00   0.00  1.00  0.00  0.00  0.00  0.00  0.00  0.00  0.00
  Channel6                1.00   0.00  1.00  0.00  0.00  0.00  0.00  0.00  0.00  0.00
  Channel7                1.00   0.00  0.00  0.00  1.00  0.00  0.00  0.00  0.68  0.00
  Channel8_1              1.00   0.42  0.58  0.00  0.00  0.00  0.00  0.00  0.00  0.00
  Channel8_2              1.00   0.00  0.42  0.00  0.58  0.00  0.00  0.00  0.27  0.00
  Channel9                1.00   0.00  0.00  0.00  1.00  0.00  0.00  0.00  0.00  0.00
  Dam                     1.00   1.00  0.00  0.00  0.00  0.00  0.00  0.00  0.00  0.00
  EX_2                    1.00   0.00  0.00  0.00  1.00  0.00  0.00  0.00  0.00  0.00
  EX_3                    1.00   0.00  0.43  0.00  0.57  0.00  0.00  0.00  0.57  0.00
  EX_6                    1.00   0.00  0.45  0.00  0.55  0.00  0.00  0.00  0.55  0.00
  EX_Channel33            1.00   0.00  0.00  0.00  1.00  0.00  0.00  0.00  0.00  0.00
  EX_Channel35            1.00   0.00  0.00  0.00  0.98  0.02  0.00  0.00  0.89  0.00
  EX_Channel36            1.00   0.00  0.03  0.00  0.97  0.00  0.00  0.00  0.01  0.00
  EX_Channel37            1.00   0.00  0.00  0.00  1.00  0.00  0.00  0.00  0.62  0.00
  EX_Channel38            1.00   0.00  1.00  0.00  0.00  0.00  0.00  0.00  0.00  0.00
  EX_Channel39            1.00   0.22  0.00  0.00  0.78  0.00  0.00  0.00  0.00  0.00
  EX_Channel41            1.00   0.00  1.00  0.00  0.00  0.00  0.00  0.00  0.00  0.00
  EX_Channel42            1.00   0.00  1.00  0.00  0.00  0.00  0.00  0.00  0.00  0.00
  EX_Channel43            1.00   0.00  0.84  0.00  0.16  0.00  0.00  0.00  0.16  0.00
  EX_Channel44            1.00   0.00  0.00  0.00  1.00  0.00  0.00  0.00  0.95  0.00
  EX_Channel45            1.00   0.00  0.00  0.00  1.00  0.00  0.00  0.00  0.02  0.00
  EX_Channel46            1.00   0.00  0.00  0.00  1.00  0.00  0.00  0.00  0.00  0.00
  EX_Channel47            1.00   0.69  0.00  0.00  0.31  0.00  0.00  0.00  0.22  0.00
  EX_Channel50            1.00   0.00  0.03  0.00  0.97  0.00  0.00  0.00  0.33  0.00
  EX_Channel51            1.00   0.00  0.23  0.00  0.77  0.00  0.00  0.00  0.77  0.00
  EX_Channel52            1.00   0.19  0.05  0.00  0.77  0.00  0.00  0.00  0.77  0.00
  EX_Channel53            1.00   0.04  0.14  0.00  0.81  0.00  0.00  0.00  0.81  0.00
  EX_Channel54            1.00   0.01  0.00  0.00  0.10  0.89  0.00  0.00  0.00  0.00
  EX_Channel55            1.00   0.00  0.04  0.00  0.96  0.00  0.00  0.00  0.95  0.00
  EX_Channel56            1.00   0.00  0.84  0.00  0.16  0.00  0.00  0.00  0.16  0.00
  EX_Channel57            1.00   0.00  0.15  0.00  0.85  0.00  0.00  0.00  0.85  0.00
  EX_Channel58            1.00   0.00  0.00  0.00  0.91  0.09  0.00  0.00  0.00  0.00
  EX_Channel60            1.00   0.00  0.00  0.00  0.78  0.22  0.00  0.00  0.02  0.00
  EX_Channel62            1.00   0.00  0.03  0.00  0.97  0.00  0.00  0.00  0.97  0.00
  EX_Channel68            1.00   0.42  0.58  0.00  0.00  0.00  0.00  0.00  0.00  0.00
  EX_Channel71            1.00   0.06  0.01  0.00  0.31  0.62  0.00  0.00  0.00  0.00
  GW_conduit              1.00   0.00  0.00  0.00  1.00  0.00  0.00  0.00  1.00  0.00
  Inlet_Culvert_2         1.00   0.00  0.00  0.00  1.00  0.00  0.00  0.00  0.00  0.00
  Inlet_Culvert1          1.00   0.00  0.00  0.00  1.00  0.00  0.00  0.00  0.00  0.00
  Storage_Pipe            1.00   0.00  0.00  0.00  0.00  0.00  0.00  1.00  0.00  0.00
  TR_1                    1.00   0.00  0.01  0.00  0.99  0.00  0.00  0.00  0.05  0.00
  TR_2                    1.00   0.00  0.00  0.00  1.00  0.00  0.00  0.00  0.05  0.00
  TR_3                    1.00   0.08  0.00  0.00  0.92  0.00  0.00  0.00  0.00  0.00
  TR_4                    1.00   0.00  0.00  0.00  0.99  0.01  0.00  0.00  0.00  0.00
  TR_5                    1.00   0.00  0.00  0.00  0.44  0.56  0.00  0.00  0.07  0.00
  TR_6                    1.00   0.00  0.00  0.00  1.00  0.00  0.00  0.00  0.32  0.00
  
  
  *************************
  Conduit Surcharge Summary
  *************************
  
  ----------------------------------------------------------------------------
                                                           Hours        Hours 
                         --------- Hours Full --------   Above Full   Capacity
  Conduit                Both Ends  Upstream  Dnstream   Normal Flow   Limited
  ----------------------------------------------------------------------------
  Aboituea#2                  0.01      0.01      0.97      0.01         0.01
  Aboituea#3                  0.01      0.01      0.97      0.01         0.01
  C_CUL001                    0.92      0.93      0.97      0.49         0.33
  C_CUL002                    0.01      0.01      0.38      0.01         0.01
  C_CUL004                    0.01      0.10      0.01      0.06         0.01
  C_CUL005                    0.01      0.01      0.53      0.01         0.01
  C_CUL038                    0.01      0.07      0.01      0.01         0.01
  C_CUL2_002                  0.01      0.01      0.01      0.01         0.01
  C_CUL2_107                  0.01      0.01      0.54      0.01         0.01
  C_CUL2_109                  0.01      0.01      0.01      0.04         0.01
  Inlet_Culvert_2             0.76      0.76      1.00      0.01         0.01
  Inlet_Culvert1              0.76      0.76      1.00      0.01         0.01
  TR_2                        0.01      0.01      0.11      0.01         0.01
  TR_4                        0.02      0.02      0.06      0.01         0.01
  TR_6                        0.01      0.01      0.38      0.01         0.01
  

  Analysis begun on:  Wed Feb 26 17:40:58 2020
  Analysis ended on:  Wed Feb 26 17:41:04 2020
  Total elapsed time: 00:00:06