
  EPA STORM WATER MANAGEMENT MODEL - VERSION 5.1 (Build 5.1.013)
  --------------------------------------------------------------

  Example 1 
  Post-Development Runoff 
  
  
  *********************************************************
  NOTE: The summary statistics displayed in this report are
  based on results found at every computational time step,  
  not just on results from each reporting time step.
  *********************************************************
  
  ****************
  Analysis Options
  ****************
  Flow Units ............... CFS
  Process Models:
    Rainfall/Runoff ........ YES
    RDII ................... NO
    Snowmelt ............... NO
    Groundwater ............ NO
    Flow Routing ........... NO
    Water Quality .......... NO
  Infiltration Method ...... HORTON
  Starting Date ............ 01/01/2007 00:00:00
  Ending Date .............. 01/01/2007 12:00:00
  Antecedent Dry Days ...... 0.0
  Report Time Step ......... 00:01:00
  Wet Time Step ............ 00:01:00
  Dry Time Step ............ 01:00:00
  
  
  **************************        Volume         Depth
  Runoff Quantity Continuity     acre-feet        inches
  **************************     ---------       -------
  Total Precipitation ......         2.358         0.978
  Evaporation Loss .........         0.000         0.000
  Infiltration Loss ........         1.011         0.420
  Surface Runoff ...........         1.286         0.533
  Final Storage ............         0.062         0.026
  Continuity Error (%) .....        -0.042
  
  
  **************************        Volume        Volume
  Flow Routing Continuity        acre-feet      10^6 gal
  **************************     ---------     ---------
  Dry Weather Inflow .......         0.000         0.000
  Wet Weather Inflow .......         1.286         0.419
  Groundwater Inflow .......         0.000         0.000
  RDII Inflow ..............         0.000         0.000
  External Inflow ..........         0.000         0.000
  External Outflow .........         1.286         0.419
  Flooding Loss ............         0.000         0.000
  Evaporation Loss .........         0.000         0.000
  Exfiltration Loss ........         0.000         0.000
  Initial Stored Volume ....         0.000         0.000
  Final Stored Volume ......         0.000         0.000
  Continuity Error (%) .....         0.000
  
  
  ***************************
  Subcatchment Runoff Summary
  ***************************
  
  ------------------------------------------------------------------------------------------------------------------------------
                            Total      Total      Total      Total     Imperv       Perv      Total       Total     Peak  Runoff
                           Precip      Runon       Evap      Infil     Runoff     Runoff     Runoff      Runoff   Runoff   Coeff
  Subcatchment                 in         in         in         in         in         in         in    10^6 gal      CFS
  ------------------------------------------------------------------------------------------------------------------------------
  S1                         0.98       0.00       0.00       0.42       0.53       0.00       0.53        0.07     7.35   0.542
  S2                         0.98       0.00       0.00       0.36       0.59       0.00       0.59        0.08     8.47   0.601
  S3                         0.98       0.00       0.00       0.59       0.37       0.00       0.37        0.04     4.24   0.377
  S4                         0.98       0.00       0.00       0.49       0.47       0.00       0.47        0.09     9.70   0.476
  S5                         0.98       0.00       0.00       0.12       0.82       0.00       0.82        0.11    11.75   0.837
  S6                         0.98       0.00       0.00       0.05       0.89       0.00       0.89        0.05     5.23   0.907
  S7                         0.98       0.00       0.00       0.98       0.00       0.00       0.00        0.00     0.00   0.000
  

  Analysis begun on:  Sun May 26 16:10:56 2019
  Analysis ended on:  Sun May 26 16:10:56 2019
  Total elapsed time: < 1 sec