
  EPA STORM WATER MANAGEMENT MODEL - VERSION 5.1 (Build 5.1.013)
  --------------------------------------------------------------

  Example 4 
  LID Controls 
  
  
  *********************************************************
  NOTE: The summary statistics displayed in this report are
  based on results found at every computational time step,  
  not just on results from each reporting time step.
  *********************************************************
  
  ****************
  Analysis Options
  ****************
  Flow Units ............... CFS
  Process Models:
    Rainfall/Runoff ........ YES
    RDII ................... NO
    Snowmelt ............... NO
    Groundwater ............ NO
    Flow Routing ........... YES
    Ponding Allowed ........ NO
    Water Quality .......... NO
  Infiltration Method ...... HORTON
  Flow Routing Method ...... DYNWAVE
  Surcharge Method ......... EXTRAN
  Starting Date ............ 01/01/2007 00:00:00
  Ending Date .............. 01/01/2007 12:00:00
  Antecedent Dry Days ...... 0.0
  Report Time Step ......... 00:01:00
  Wet Time Step ............ 00:01:00
  Dry Time Step ............ 01:00:00
  Routing Time Step ........ 15.00 sec
  Variable Time Step ....... YES
  Maximum Trials ........... 8
  Number of Threads ........ 1
  Head Tolerance ........... 0.005000 ft
  
  
  **************************        Volume         Depth
  Runoff Quantity Continuity     acre-feet        inches
  **************************     ---------       -------
  Total Precipitation ......         8.797         3.629
  Evaporation Loss .........         0.000         0.000
  Infiltration Loss ........         1.493         0.616
  Surface Runoff ...........         7.108         2.933
  Final Storage ............         0.203         0.084
  Continuity Error (%) .....        -0.086
  
  
  **************************        Volume        Volume
  Flow Routing Continuity        acre-feet      10^6 gal
  **************************     ---------     ---------
  Dry Weather Inflow .......         0.000         0.000
  Wet Weather Inflow .......         7.103         2.315
  Groundwater Inflow .......         0.000         0.000
  RDII Inflow ..............         0.000         0.000
  External Inflow ..........         0.000         0.000
  External Outflow .........         7.102         2.314
  Flooding Loss ............         0.000         0.000
  Evaporation Loss .........         0.000         0.000
  Exfiltration Loss ........         0.000         0.000
  Initial Stored Volume ....         0.000         0.000
  Final Stored Volume ......         0.001         0.000
  Continuity Error (%) .....         0.011
  
  
  ***************************
  Time-Step Critical Elements
  ***************************
  Link C11 (46.89%)
  
  
  ********************************
  Highest Flow Instability Indexes
  ********************************
  All links are stable.
  
  
  *************************
  Routing Time Step Summary
  *************************
  Minimum Time Step           :     3.26 sec
  Average Time Step           :    10.76 sec
  Maximum Time Step           :    15.00 sec
  Percent in Steady State     :    -0.00
  Average Iterations per Step :     2.00
  Percent Not Converging      :     0.00
  
  
  ***************************
  Subcatchment Runoff Summary
  ***************************
  
  ------------------------------------------------------------------------------------------------------------------------------
                            Total      Total      Total      Total     Imperv       Perv      Total       Total     Peak  Runoff
                           Precip      Runon       Evap      Infil     Runoff     Runoff     Runoff      Runoff   Runoff   Coeff
  Subcatchment                 in         in         in         in         in         in         in    10^6 gal      CFS
  ------------------------------------------------------------------------------------------------------------------------------
  S5                         3.67       0.00       0.00       0.17       3.18       0.28       3.46        0.45    47.28   0.944
  S6                         3.67       0.00       0.00       0.07       3.45       0.12       3.56        0.19    19.73   0.971
  S7                         3.67       0.00       0.00       1.46       0.00       2.22       2.22        0.14    10.60   0.604
  S3.1                       3.67       0.00       0.00       1.43       0.00       2.24       2.24        0.08     7.48   0.612
  S3.2                       3.67       0.00       0.00       0.49       2.36       0.79       3.15        0.09     9.03   0.858
  S3.3                       3.67       0.00       0.00       0.60       2.10       0.95       3.05        0.11    11.65   0.831
  S4.1                       3.67       0.00       0.00       1.44       0.00       2.23       2.23        0.10     8.18   0.607
  S4.2                       3.67       0.00       0.00       0.42       2.54       0.68       3.22        0.07     7.22   0.877
  S4.3                       3.67       0.00       0.00       0.49       2.36       0.79       3.15        0.16    16.92   0.858
  S4.4                       3.67       0.00       0.00       0.43       2.50       0.70       3.21        0.21    21.87   0.874
  S_FS_1                     0.00      84.53       0.00       0.86       0.00      83.71      83.71        0.09     9.02   0.990
  S_FS_2                     0.00      97.89       0.00       0.85       0.00      97.08      97.08        0.11    11.63   0.992
  S_FS_3                     0.00     101.74       0.00       0.88       0.00     100.90     100.90        0.07     7.22   0.992
  S_FS_4                     0.00      73.36       0.00       0.85       0.00      72.54      72.54        0.16    16.90   0.989
  S1.1                       3.67       0.00       0.00       0.49       2.36       0.79       3.15        0.10    10.74   0.858
  S1.2                       3.67       0.00       0.00       0.49       2.36       0.79       3.15        0.12    12.96   0.858
  S1.3                       3.67       0.00       0.00       0.79       1.63       1.23       2.86        0.15    14.03   0.780
  S2.1                       3.67       0.00       0.00       0.79       1.63       1.23       2.86        0.10     9.70   0.780
  S2.2                       3.67       0.00       0.00       0.42       2.54       0.68       3.22        0.13    13.75   0.878
  S2.3                       3.67       0.00       0.00       0.42       2.54       0.68       3.22        0.16    17.23   0.878
  S_IT_1                     0.00     148.34       0.00       2.40       0.00     132.64     132.64        0.11     7.27   0.894
  S_IT_2                     0.00     163.04       0.00       2.40       0.00     147.31     147.31        0.13     7.63   0.904
  S_IT_3                     0.00     155.81       0.00       2.40       0.00     140.13     140.13        0.12     8.15   0.899
  S_IT_4                     0.00     189.18       0.00       2.40       0.00     173.50     173.50        0.15    10.97   0.917
  
  
  ******************
  Node Depth Summary
  ******************
  
  ---------------------------------------------------------------------------------
                                 Average  Maximum  Maximum  Time of Max    Reported
                                   Depth    Depth      HGL   Occurrence   Max Depth
  Node                 Type         Feet     Feet     Feet  days hr:min        Feet
  ---------------------------------------------------------------------------------
  J1                   JUNCTION     0.18     0.87  4973.87     0  00:37        0.87
  J2                   JUNCTION     0.22     0.81  4969.81     0  00:40        0.81
  J3                   JUNCTION     0.19     0.98  4973.98     0  00:38        0.98
  J4                   JUNCTION     0.14     0.78  4971.78     0  00:38        0.78
  J5                   JUNCTION     0.36     1.63  4971.43     0  00:40        1.63
  J6                   JUNCTION     0.35     1.69  4970.69     0  00:39        1.69
  J7                   JUNCTION     0.14     0.86  4972.36     0  00:36        0.86
  J8                   JUNCTION     0.34     1.61  4968.11     0  00:39        1.61
  J9                   JUNCTION     0.51     2.22  4967.02     0  00:40        2.22
  J10                  JUNCTION     0.55     2.39  4966.19     0  00:40        2.39
  J11                  JUNCTION     0.63     2.81  4965.81     0  00:40        2.81
  J12                  JUNCTION     0.15     0.99  4974.79     0  00:35        0.99
  J13                  JUNCTION     0.17     0.68  4971.38     0  00:36        0.68
  J14                  JUNCTION     0.10     0.49  4973.39     0  00:35        0.49
  J15                  JUNCTION     0.13     0.77  4975.27     0  00:36        0.76
  J16                  JUNCTION     0.14     0.71  4974.21     0  00:36        0.71
  J17                  JUNCTION     0.09     0.61  4974.11     0  00:36        0.61
  O1                   OUTFALL      0.62     2.81  4964.81     0  00:40        2.81
  
  
  *******************
  Node Inflow Summary
  *******************
  
  -------------------------------------------------------------------------------------------------
                                  Maximum  Maximum                  Lateral       Total        Flow
                                  Lateral    Total  Time of Max      Inflow      Inflow     Balance
                                   Inflow   Inflow   Occurrence      Volume      Volume       Error
  Node                 Type           CFS      CFS  days hr:min    10^6 gal    10^6 gal     Percent
  -------------------------------------------------------------------------------------------------
  J1                   JUNCTION     14.63    23.51     0  00:36       0.244       0.348       0.217
  J2                   JUNCTION      0.00    26.42     0  00:36           0        0.37       0.036
  J3                   JUNCTION      7.48    14.45     0  00:36      0.0786       0.166       0.539
  J4                   JUNCTION      0.00    13.00     0  00:38           0       0.165      -0.066
  J5                   JUNCTION      0.00    43.87     0  00:36           0       0.626       0.295
  J6                   JUNCTION      8.18    63.25     0  00:37      0.0997       0.955       0.013
  J7                   JUNCTION      0.00    23.68     0  00:36           0        0.23      -0.074
  J8                   JUNCTION      0.00    62.44     0  00:39           0       0.955       0.006
  J9                   JUNCTION     21.87    72.81     0  00:39       0.209        1.16       0.142
  J10                  JUNCTION     57.88   101.36     0  00:35        0.59        1.75      -0.099
  J11                  JUNCTION     19.73   128.79     0  00:40       0.191        2.31       0.019
  J12                  JUNCTION     10.74    10.74     0  00:35       0.103       0.103      -0.976
  J13                  JUNCTION     19.12    27.03     0  00:36       0.269        0.37       0.067
  J14                  JUNCTION      9.70     9.70     0  00:35       0.101       0.101      -0.512
  J15                  JUNCTION      9.02     9.02     0  00:36      0.0863      0.0863      -1.020
  J16                  JUNCTION     24.12    24.12     0  00:36        0.23        0.23      -0.198
  J17                  JUNCTION     11.63    11.63     0  00:36       0.113       0.113      -0.695
  O1                   OUTFALL       0.00   128.43     0  00:40           0        2.31       0.000
  
  
  **********************
  Node Surcharge Summary
  **********************
  
  No nodes were surcharged.
  
  
  *********************
  Node Flooding Summary
  *********************
  
  No nodes were flooded.
  
  
  ***********************
  Outfall Loading Summary
  ***********************
  
  -----------------------------------------------------------
                         Flow       Avg       Max       Total
                         Freq      Flow      Flow      Volume
  Outfall Node           Pcnt       CFS       CFS    10^6 gal
  -----------------------------------------------------------
  O1                    99.83     18.33    128.43       2.314
  -----------------------------------------------------------
  System                99.83     18.33    128.43       2.314
  
  
  ********************
  Link Flow Summary
  ********************
  
  -----------------------------------------------------------------------------
                                 Maximum  Time of Max   Maximum    Max/    Max/
                                  |Flow|   Occurrence   |Veloc|    Full    Full
  Link                 Type          CFS  days hr:min    ft/sec    Flow   Depth
  -----------------------------------------------------------------------------
  C1                   CONDUIT     22.40     0  00:37      1.75    0.07    0.41
  C2                   CONDUIT     23.68     0  00:40      3.17    0.18    0.52
  C3                   CONDUIT     13.00     0  00:38      9.07    0.38    0.39
  C4                   CONDUIT     12.93     0  00:39      1.00    0.05    0.40
  C5                   CONDUIT     39.57     0  00:40      1.82    0.25    0.55
  C6                   CONDUIT     22.13     0  00:36      1.76    0.07    0.41
  C7                   CONDUIT     62.44     0  00:39     14.02    0.47    0.47
  C8                   CONDUIT     62.32     0  00:39      2.27    0.24    0.64
  C9                   CONDUIT     70.64     0  00:40      1.85    0.50    0.77
  C10                  CONDUIT     97.37     0  00:40      2.09    0.52    0.87
  C11                  CONDUIT    128.43     0  00:40     11.77    0.66    0.59
  C12                  CONDUIT     10.48     0  00:35      1.25    0.08    0.30
  C13                  CONDUIT      9.37     0  00:35      2.41    0.05    0.38
  C14                  CONDUIT     26.42     0  00:36      4.32    0.12    0.49
  C15                  CONDUIT      7.65     0  00:36      0.98    0.05    0.29
  C16                  CONDUIT     11.33     0  00:36      1.34    0.03    0.35
  C17                  CONDUIT     23.68     0  00:36      3.36    0.14    0.52
  
  
  ***************************
  Flow Classification Summary
  ***************************
  
  -------------------------------------------------------------------------------------
                      Adjusted    ---------- Fraction of Time in Flow Class ---------- 
                       /Actual         Up    Down  Sub   Sup   Up    Down  Norm  Inlet 
  Conduit               Length    Dry  Dry   Dry   Crit  Crit  Crit  Crit  Ltd   Ctrl  
  -------------------------------------------------------------------------------------
  C1                      1.00   0.00  0.00  0.00  1.00  0.00  0.00  0.00  0.98  0.00
  C2                      1.00   0.00  0.00  0.00  0.00  0.00  0.00  1.00  0.00  0.00
  C3                      1.00   0.01  0.00  0.00  0.34  0.65  0.00  0.00  0.00  0.00
  C4                      1.00   0.01  0.01  0.00  0.98  0.00  0.00  0.00  0.98  0.00
  C5                      1.00   0.00  0.00  0.00  0.99  0.00  0.00  0.00  0.74  0.00
  C6                      1.00   0.00  0.35  0.00  0.65  0.00  0.00  0.00  0.98  0.00
  C7                      1.00   0.00  0.00  0.00  0.19  0.81  0.00  0.00  0.18  0.00
  C8                      1.00   0.00  0.01  0.00  0.99  0.00  0.00  0.00  0.99  0.00
  C9                      1.00   0.00  0.00  0.00  1.00  0.00  0.00  0.00  0.16  0.00
  C10                     1.00   0.00  0.00  0.00  1.00  0.00  0.00  0.00  0.97  0.00
  C11                     1.00   0.00  0.00  0.00  0.19  0.81  0.00  0.00  0.19  0.00
  C12                     1.00   0.00  0.00  0.00  1.00  0.00  0.00  0.00  0.83  0.00
  C13                     1.00   0.00  0.00  0.00  0.96  0.04  0.00  0.00  0.66  0.00
  C14                     1.00   0.00  0.00  0.00  0.89  0.11  0.00  0.00  0.96  0.00
  C15                     1.00   0.01  0.00  0.00  0.99  0.00  0.00  0.00  0.95  0.00
  C16                     1.00   0.01  0.29  0.00  0.71  0.00  0.00  0.00  0.98  0.00
  C17                     1.00   0.01  0.00  0.00  0.62  0.38  0.00  0.00  0.03  0.00
  
  
  *************************
  Conduit Surcharge Summary
  *************************
  
  No conduits were surcharged.
  

  Analysis begun on:  Sun May 26 16:10:56 2019
  Analysis ended on:  Sun May 26 16:10:57 2019
  Total elapsed time: 00:00:01