
  EPA STORM WATER MANAGEMENT MODEL - VERSION 5.1 (Build 5.1.013)
  --------------------------------------------------------------

  Example 5 
  Runoff Quality 
  EMC Washoff 
  
  
  *********************************************************
  NOTE: The summary statistics displayed in this report are
  based on results found at every computational time step,  
  not just on results from each reporting time step.
  *********************************************************
  
  ****************
  Analysis Options
  ****************
  Flow Units ............... CFS
  Process Models:
    Rainfall/Runoff ........ YES
    RDII ................... NO
    Snowmelt ............... NO
    Groundwater ............ NO
    Flow Routing ........... YES
    Ponding Allowed ........ NO
    Water Quality .......... YES
  Infiltration Method ...... HORTON
  Flow Routing Method ...... DYNWAVE
  Surcharge Method ......... EXTRAN
  Starting Date ............ 01/01/2007 00:00:00
  Ending Date .............. 01/01/2007 12:00:00
  Antecedent Dry Days ...... 5.0
  Report Time Step ......... 00:01:00
  Wet Time Step ............ 00:01:00
  Dry Time Step ............ 01:00:00
  Routing Time Step ........ 15.00 sec
  Variable Time Step ....... YES
  Maximum Trials ........... 8
  Number of Threads ........ 1
  Head Tolerance ........... 0.005000 ft
  
  
  **************************        Volume         Depth
  Runoff Quantity Continuity     acre-feet        inches
  **************************     ---------       -------
  Total Precipitation ......         0.240         0.100
  Evaporation Loss .........         0.000         0.000
  Infiltration Loss ........         0.103         0.043
  Surface Runoff ...........         0.075         0.031
  Final Storage ............         0.062         0.026
  Continuity Error (%) .....        -0.015
  
  
  **************************           TSS
  Runoff Quality Continuity            lbs
  **************************    ----------
  Initial Buildup ..........       913.850
  Surface Buildup ..........        29.282
  Wet Deposition ...........         6.533
  Sweeping Removal .........         0.000
  Infiltration Loss ........         2.802
  BMP Removal ..............         0.000
  Surface Runoff ...........        33.928
  Remaining Buildup ........       912.937
  Continuity Error (%) .....         0.000
  
  
  **************************        Volume        Volume
  Flow Routing Continuity        acre-feet      10^6 gal
  **************************     ---------     ---------
  Dry Weather Inflow .......         0.000         0.000
  Wet Weather Inflow .......         0.075         0.025
  Groundwater Inflow .......         0.000         0.000
  RDII Inflow ..............         0.000         0.000
  External Inflow ..........         0.000         0.000
  External Outflow .........         0.075         0.025
  Flooding Loss ............         0.000         0.000
  Evaporation Loss .........         0.000         0.000
  Exfiltration Loss ........         0.000         0.000
  Initial Stored Volume ....         0.000         0.000
  Final Stored Volume ......         0.000         0.000
  Continuity Error (%) .....        -0.035
  
  
  **************************           TSS
  Quality Routing Continuity           lbs
  **************************    ----------
  Dry Weather Inflow .......         0.000
  Wet Weather Inflow .......        33.888
  Groundwater Inflow .......         0.000
  RDII Inflow ..............         0.000
  External Inflow ..........         0.000
  External Outflow .........        33.759
  Flooding Loss ............         0.000
  Exfiltration Loss ........         0.000
  Mass Reacted .............         0.000
  Initial Stored Mass ......         0.000
  Final Stored Mass ........         0.082
  Continuity Error (%) .....         0.138
  
  
  ***************************
  Time-Step Critical Elements
  ***************************
  Link C11 (2.84%)
  Link C7 (1.80%)
  
  
  ********************************
  Highest Flow Instability Indexes
  ********************************
  All links are stable.
  
  
  *************************
  Routing Time Step Summary
  *************************
  Minimum Time Step           :     1.21 sec
  Average Time Step           :    14.95 sec
  Maximum Time Step           :    15.00 sec
  Percent in Steady State     :     0.00
  Average Iterations per Step :     2.00
  Percent Not Converging      :     0.00
  
  
  ***************************
  Subcatchment Runoff Summary
  ***************************
  
  ------------------------------------------------------------------------------------------------------------------------------
                            Total      Total      Total      Total     Imperv       Perv      Total       Total     Peak  Runoff
                           Precip      Runon       Evap      Infil     Runoff     Runoff     Runoff      Runoff   Runoff   Coeff
  Subcatchment                 in         in         in         in         in         in         in    10^6 gal      CFS
  ------------------------------------------------------------------------------------------------------------------------------
  S1                         0.10       0.00       0.00       0.04       0.03       0.00       0.03        0.00     0.18   0.312
  S2                         0.10       0.00       0.00       0.04       0.03       0.00       0.03        0.00     0.20   0.346
  S3                         0.10       0.00       0.00       0.06       0.02       0.00       0.02        0.00     0.12   0.217
  S4                         0.10       0.00       0.00       0.05       0.03       0.00       0.03        0.01     0.25   0.274
  S5                         0.10       0.00       0.00       0.01       0.05       0.00       0.05        0.01     0.26   0.481
  S6                         0.10       0.00       0.00       0.00       0.05       0.00       0.05        0.00     0.11   0.521
  S7                         0.10       0.00       0.00       0.10       0.00       0.00       0.00        0.00     0.00   0.000
  
  
  ****************************
  Subcatchment Washoff Summary
  ****************************
  
  ----------------------------------
                                 TSS
  Subcatchment                   lbs
  ----------------------------------
  S1                           5.335
  S2                           7.223
  S3                           2.110
  S4                           5.411
  S5                           9.509
  S6                           4.340
  S7                           0.000
  ----------------------------------
  System                      33.928
  
  
  ******************
  Node Depth Summary
  ******************
  
  ---------------------------------------------------------------------------------
                                 Average  Maximum  Maximum  Time of Max    Reported
                                   Depth    Depth      HGL   Occurrence   Max Depth
  Node                 Type         Feet     Feet     Feet  days hr:min        Feet
  ---------------------------------------------------------------------------------
  J1                   JUNCTION     0.01     0.06  4973.06     0  00:45        0.06
  J2                   JUNCTION     0.03     0.14  4969.14     0  00:49        0.14
  J3                   JUNCTION     0.01     0.11  4973.11     0  00:40        0.11
  J4                   JUNCTION     0.01     0.05  4971.05     0  00:43        0.05
  J5                   JUNCTION     0.01     0.11  4969.91     0  00:50        0.11
  J6                   JUNCTION     0.02     0.15  4969.15     0  00:51        0.15
  J7                   JUNCTION     0.01     0.07  4971.57     0  00:42        0.07
  J8                   JUNCTION     0.02     0.14  4966.64     0  00:45        0.14
  J9                   JUNCTION     0.02     0.15  4964.95     0  00:59        0.15
  J10                  JUNCTION     0.03     0.16  4963.96     0  01:01        0.16
  J11                  JUNCTION     0.04     0.21  4963.21     0  01:00        0.21
  O1                   OUTFALL      0.03     0.21  4962.21     0  01:00        0.21
  
  
  *******************
  Node Inflow Summary
  *******************
  
  -------------------------------------------------------------------------------------------------
                                  Maximum  Maximum                  Lateral       Total        Flow
                                  Lateral    Total  Time of Max      Inflow      Inflow     Balance
                                   Inflow   Inflow   Occurrence      Volume      Volume       Error
  Node                 Type           CFS      CFS  days hr:min    10^6 gal    10^6 gal     Percent
  -------------------------------------------------------------------------------------------------
  J1                   JUNCTION      0.18     0.18     0  00:45     0.00384     0.00384      -0.164
  J2                   JUNCTION      0.20     0.20     0  00:45     0.00444     0.00444      -0.001
  J3                   JUNCTION      0.12     0.12     0  00:40      0.0022      0.0022      -0.065
  J4                   JUNCTION      0.00     0.12     0  00:40           0      0.0022      -0.105
  J5                   JUNCTION      0.00     0.29     0  00:45           0     0.00605       0.196
  J6                   JUNCTION      0.00     0.46     0  00:46           0      0.0111       0.088
  J7                   JUNCTION      0.25     0.25     0  00:40     0.00504     0.00504      -0.160
  J8                   JUNCTION      0.00     0.42     0  00:48           0      0.0111      -0.194
  J9                   JUNCTION      0.00     0.49     0  00:49           0      0.0111       0.452
  J10                  JUNCTION      0.26     0.55     0  00:55     0.00624      0.0173       0.054
  J11                  JUNCTION      0.11     0.74     0  00:59     0.00279      0.0245       0.021
  O1                   OUTFALL       0.00     0.74     0  01:00           0      0.0245       0.000
  
  
  **********************
  Node Surcharge Summary
  **********************
  
  No nodes were surcharged.
  
  
  *********************
  Node Flooding Summary
  *********************
  
  No nodes were flooded.
  
  
  ***********************
  Outfall Loading Summary
  ***********************
  
  -------------------------------------------------------------------------
                         Flow       Avg       Max       Total         Total
                         Freq      Flow      Flow      Volume           TSS
  Outfall Node           Pcnt       CFS       CFS    10^6 gal           lbs
  -------------------------------------------------------------------------
  O1                    78.13      0.10      0.74       0.025        33.759
  -------------------------------------------------------------------------
  System                78.13      0.10      0.74       0.025        33.759
  
  
  ********************
  Link Flow Summary
  ********************
  
  -----------------------------------------------------------------------------
                                 Maximum  Time of Max   Maximum    Max/    Max/
                                  |Flow|   Occurrence   |Veloc|    Full    Full
  Link                 Type          CFS  days hr:min    ft/sec    Flow   Depth
  -----------------------------------------------------------------------------
  C1                   CONDUIT      0.17     0  00:45      0.53    0.00    0.03
  C2                   CONDUIT      0.16     0  00:49      0.93    0.00    0.12
  C3                   CONDUIT      0.12     0  00:40      2.73    0.00    0.04
  C4                   CONDUIT      0.11     0  00:43      0.33    0.00    0.03
  C5                   CONDUIT      0.24     0  00:50      0.33    0.00    0.04
  C6                   CONDUIT      0.25     0  00:42      0.51    0.00    0.04
  C7                   CONDUIT      0.42     0  00:48      3.51    0.00    0.04
  C8                   CONDUIT      0.49     0  00:49      0.70    0.00    0.04
  C9                   CONDUIT      0.38     0  00:59      0.43    0.00    0.05
  C10                  CONDUIT      0.53     0  01:01      0.49    0.00    0.06
  C11                  CONDUIT      0.74     0  01:00      2.62    0.00    0.04
  
  
  ***************************
  Flow Classification Summary
  ***************************
  
  -------------------------------------------------------------------------------------
                      Adjusted    ---------- Fraction of Time in Flow Class ---------- 
                       /Actual         Up    Down  Sub   Sup   Up    Down  Norm  Inlet 
  Conduit               Length    Dry  Dry   Dry   Crit  Crit  Crit  Crit  Ltd   Ctrl  
  -------------------------------------------------------------------------------------
  C1                      1.00   0.00  0.00  0.00  1.00  0.00  0.00  0.00  0.96  0.00
  C2                      1.00   0.00  0.00  0.00  0.00  0.00  0.00  1.00  0.00  0.00
  C3                      1.00   0.00  0.00  0.00  0.78  0.21  0.00  0.00  0.20  0.00
  C4                      1.00   0.00  0.00  0.00  1.00  0.00  0.00  0.00  0.96  0.00
  C5                      1.00   0.00  0.00  0.00  1.00  0.00  0.00  0.00  0.66  0.00
  C6                      1.00   0.00  0.00  0.00  1.00  0.00  0.00  0.00  0.96  0.00
  C7                      1.00   0.00  0.00  0.00  0.57  0.43  0.00  0.00  0.43  0.00
  C8                      1.00   0.01  0.00  0.00  0.99  0.00  0.00  0.00  0.93  0.00
  C9                      1.00   0.00  0.03  0.00  0.97  0.00  0.00  0.00  0.96  0.00
  C10                     1.00   0.00  0.00  0.00  1.00  0.00  0.00  0.00  1.00  0.00
  C11                     1.00   0.00  0.00  0.00  0.53  0.47  0.00  0.00  0.03  0.00
  
  
  *************************
  Conduit Surcharge Summary
  *************************
  
  No conduits were surcharged.
  
  
  ***************************
  Link Pollutant Load Summary
  ***************************
  
  ----------------------------------
                                 TSS
  Link                           lbs
  ----------------------------------
  C1                           5.446
  C2                           7.180
  C3                           2.109
  C4                           2.144
  C5                           7.564
  C6                           5.513
  C7                          13.156
  C8                          13.157
  C9                          12.958
  C10                         22.421
  C11                         33.759
  

  Analysis begun on:  Sun May 26 16:10:57 2019
  Analysis ended on:  Sun May 26 16:10:57 2019
  Total elapsed time: < 1 sec