
  EPA STORM WATER MANAGEMENT MODEL - VERSION 5.1 (Build 5.1.013)
  --------------------------------------------------------------

  Example 8 
  Combined Sewer System 
  
  
  *********************************************************
  NOTE: The summary statistics displayed in this report are
  based on results found at every computational time step,  
  not just on results from each reporting time step.
  *********************************************************
  
  ****************
  Analysis Options
  ****************
  Flow Units ............... CFS
  Process Models:
    Rainfall/Runoff ........ YES
    RDII ................... NO
    Snowmelt ............... NO
    Groundwater ............ NO
    Flow Routing ........... YES
    Ponding Allowed ........ NO
    Water Quality .......... NO
  Infiltration Method ...... HORTON
  Flow Routing Method ...... DYNWAVE
  Surcharge Method ......... EXTRAN
  Starting Date ............ 01/01/2007 00:00:00
  Ending Date .............. 01/01/2007 12:00:00
  Antecedent Dry Days ...... 0.0
  Report Time Step ......... 00:01:00
  Wet Time Step ............ 00:01:00
  Dry Time Step ............ 01:00:00
  Routing Time Step ........ 15.00 sec
  Variable Time Step ....... YES
  Maximum Trials ........... 8
  Number of Threads ........ 1
  Head Tolerance ........... 0.005000 ft
  
  
  **************************        Volume         Depth
  Runoff Quantity Continuity     acre-feet        inches
  **************************     ---------       -------
  Total Precipitation ......         0.554         0.230
  Evaporation Loss .........         0.000         0.000
  Infiltration Loss ........         0.238         0.099
  Surface Runoff ...........         0.255         0.106
  Final Storage ............         0.062         0.026
  Continuity Error (%) .....        -0.047
  
  
  **************************        Volume        Volume
  Flow Routing Continuity        acre-feet      10^6 gal
  **************************     ---------     ---------
  Dry Weather Inflow .......         0.046         0.015
  Wet Weather Inflow .......         0.255         0.083
  Groundwater Inflow .......         0.000         0.000
  RDII Inflow ..............         0.000         0.000
  External Inflow ..........         0.000         0.000
  External Outflow .........         0.197         0.064
  Flooding Loss ............         0.000         0.000
  Evaporation Loss .........         0.000         0.000
  Exfiltration Loss ........         0.000         0.000
  Initial Stored Volume ....         0.049         0.016
  Final Stored Volume ......         0.160         0.052
  Continuity Error (%) .....        -2.043
  
  
  *************************
  Highest Continuity Errors
  *************************
  Node JI12 (17.77%)
  Node JI11 (15.12%)
  Node JI10 (6.99%)
  
  
  ***************************
  Time-Step Critical Elements
  ***************************
  Link I5 (99.96%)
  
  
  ********************************
  Highest Flow Instability Indexes
  ********************************
  Link I10 (8)
  Link I11 (3)
  Link Pump1 (1)
  
  
  *************************
  Routing Time Step Summary
  *************************
  Minimum Time Step           :     0.50 sec
  Average Time Step           :     2.34 sec
  Maximum Time Step           :    15.00 sec
  Percent in Steady State     :    -0.00
  Average Iterations per Step :     2.20
  Percent Not Converging      :     1.65
  
  
  ***************************
  Subcatchment Runoff Summary
  ***************************
  
  ------------------------------------------------------------------------------------------------------------------------------
                            Total      Total      Total      Total     Imperv       Perv      Total       Total     Peak  Runoff
                           Precip      Runon       Evap      Infil     Runoff     Runoff     Runoff      Runoff   Runoff   Coeff
  Subcatchment                 in         in         in         in         in         in         in    10^6 gal      CFS
  ------------------------------------------------------------------------------------------------------------------------------
  S1                         0.23       0.00       0.00       0.10       0.11       0.00       0.11        0.01     1.55   0.457
  S2                         0.23       0.00       0.00       0.09       0.12       0.00       0.12        0.02     1.75   0.507
  S3                         0.23       0.00       0.00       0.14       0.07       0.00       0.07        0.01     0.97   0.318
  S4                         0.23       0.00       0.00       0.12       0.09       0.00       0.09        0.02     2.14   0.402
  S5                         0.23       0.00       0.00       0.03       0.16       0.00       0.16        0.02     2.24   0.706
  S6                         0.23       0.00       0.00       0.01       0.18       0.00       0.18        0.01     0.98   0.764
  S7                         0.23       0.00       0.00       0.23       0.00       0.00       0.00        0.00     0.00   0.000
  
  
  ******************
  Node Depth Summary
  ******************
  
  ---------------------------------------------------------------------------------
                                 Average  Maximum  Maximum  Time of Max    Reported
                                   Depth    Depth      HGL   Occurrence   Max Depth
  Node                 Type         Feet     Feet     Feet  days hr:min        Feet
  ---------------------------------------------------------------------------------
  J1                   JUNCTION     0.10     0.47  4969.47     0  00:35        0.47
  J2a                  JUNCTION     0.10     0.45  4967.15     0  00:35        0.45
  J2                   JUNCTION     0.11     0.48  4965.48     0  00:35        0.48
  J3                   JUNCTION     0.00     0.00  4968.00     0  00:00        0.00
  J4                   JUNCTION     0.00     0.00  4966.00     0  00:00        0.00
  J5                   JUNCTION     0.00     0.00  4964.80     0  00:00        0.00
  J6                   JUNCTION     0.00     0.00  4964.00     0  00:00        0.00
  J7                   JUNCTION     0.11     0.61  4960.61     0  00:36        0.61
  J8                   JUNCTION     0.00     0.00  4961.50     0  00:00        0.00
  J9                   JUNCTION     0.00     0.00  4959.80     0  00:00        0.00
  J10                  JUNCTION     0.00     0.00  4958.80     0  00:00        0.00
  J11                  JUNCTION     0.05     0.23  4958.23     0  00:35        0.23
  J12                  JUNCTION     0.12     0.50  4968.50     0  00:35        0.50
  J13                  JUNCTION     0.09     0.40  4968.40     0  00:35        0.40
  Aux3                 JUNCTION     0.12     0.49  4968.99     0  00:35        0.49
  JI1                  JUNCTION     0.08     0.35  4958.35     0  00:40        0.35
  JI2                  JUNCTION     0.13     0.64  4957.64     0  00:36        0.64
  JI3                  JUNCTION     0.18     0.86  4955.86     0  00:37        0.85
  JI4                  JUNCTION     0.17     0.76  4952.76     0  00:37        0.76
  JI5                  JUNCTION     0.19     0.86  4950.86     0  00:37        0.86
  JI6                  JUNCTION     0.05     0.38  4967.38     0  00:39        0.38
  JI7                  JUNCTION     0.04     0.27  4967.27     0  00:35        0.27
  JI8                  JUNCTION     0.07     0.34  4962.34     0  00:36        0.34
  JI9                  JUNCTION     0.07     0.32  4960.32     0  00:36        0.32
  JI10                 JUNCTION    20.71    26.26  4973.26     0  06:55       24.27
  JI11                 JUNCTION    13.63    74.89  5029.69     0  00:39       16.38
  JI12                 JUNCTION     6.74    49.19  5011.79     0  00:44        8.50
  JI13                 JUNCTION     0.09     0.47  4970.87     0  00:55        0.47
  O1                   OUTFALL      0.03     0.23  4957.23     0  00:35        0.23
  O2                   OUTFALL      2.00     2.00  4970.00     0  00:00        2.00
  Well                 STORAGE      3.57     5.50  4950.50     0  00:51        5.49
  
  
  *******************
  Node Inflow Summary
  *******************
  
  -------------------------------------------------------------------------------------------------
                                  Maximum  Maximum                  Lateral       Total        Flow
                                  Lateral    Total  Time of Max      Inflow      Inflow     Balance
                                   Inflow   Inflow   Occurrence      Volume      Volume       Error
  Node                 Type           CFS      CFS  days hr:min    10^6 gal    10^6 gal     Percent
  -------------------------------------------------------------------------------------------------
  J1                   JUNCTION      1.55     1.55     0  00:35      0.0156      0.0156       0.039
  J2a                  JUNCTION      1.76     1.76     0  00:35      0.0182      0.0182      -0.004
  J2                   JUNCTION      0.00     1.73     0  00:35           0      0.0182       0.131
  J3                   JUNCTION      0.00     0.00     0  00:00           0           0       0.000 gal
  J4                   JUNCTION      0.00     0.00     0  00:00           0           0       0.000 gal
  J5                   JUNCTION      0.00     0.00     0  00:00           0           0       0.000 gal
  J6                   JUNCTION      0.00     0.00     0  00:00           0           0       0.000 gal
  J7                   JUNCTION      0.00     2.11     0  00:35           0       0.021       0.203
  J8                   JUNCTION      0.00     0.00     0  00:00           0           0       0.000 gal
  J9                   JUNCTION      0.00     0.00     0  00:00           0           0       0.000 gal
  J10                  JUNCTION      0.00     0.00     0  00:00           0           0       0.000 gal
  J11                  JUNCTION      0.98     0.98     0  00:35     0.00945     0.00945       0.010
  J12                  JUNCTION      2.25     2.25     0  00:35      0.0252      0.0252       0.045
  J13                  JUNCTION      2.16     2.16     0  00:35       0.021       0.021      -0.027
  Aux3                 JUNCTION      0.97     0.97     0  00:35     0.00872     0.00872      -0.064
  JI1                  JUNCTION      0.00     0.63     0  00:39           0     0.00868       0.093
  JI2                  JUNCTION      0.00     2.03     0  00:35           0      0.0242       0.046
  JI3                  JUNCTION      0.00     3.81     0  00:36           0      0.0452       0.146
  JI4                  JUNCTION      0.00     5.64     0  00:36           0      0.0703       0.122
  JI5                  JUNCTION      0.00     7.04     0  00:37           0      0.0884       0.039
  JI6                  JUNCTION      0.00     0.85     0  00:35           0     0.00873       0.565
  JI7                  JUNCTION      0.00     1.54     0  00:35           0      0.0156       0.018
  JI8                  JUNCTION      0.00     2.16     0  00:35           0      0.0251       0.096
  JI9                  JUNCTION      0.00     1.62     0  00:35           0      0.0182       0.145
  JI10                 JUNCTION      0.00     7.20     0  00:33           0      0.0845       7.511
  JI11                 JUNCTION      0.00     7.24     0  00:35           0      0.0787      17.807
  JI12                 JUNCTION      0.00     5.50     0  00:41           0      0.0668      21.614
  JI13                 JUNCTION      0.00     2.44     0  00:51           0      0.0549       0.033
  O1                   OUTFALL       0.00     0.88     0  00:35           0     0.00945       0.000
  O2                   OUTFALL       0.00     2.37     0  00:55           0      0.0548       0.000
  Well                 STORAGE       0.00     7.04     0  00:37           0      0.0951       0.267
  
  
  **********************
  Node Surcharge Summary
  **********************
  
  Surcharging occurs when water rises above the top of the highest conduit.
  ---------------------------------------------------------------------
                                               Max. Height   Min. Depth
                                   Hours       Above Crown    Below Rim
  Node                 Type      Surcharged           Feet         Feet
  ---------------------------------------------------------------------
  JI10                 JUNCTION       11.41         24.262        0.000
  JI11                 JUNCTION       11.35         72.886        0.000
  JI12                 JUNCTION       11.27         47.189        0.000
  
  
  *********************
  Node Flooding Summary
  *********************
  
  No nodes were flooded.
  
  
  **********************
  Storage Volume Summary
  **********************
  
  --------------------------------------------------------------------------------------------------
                         Average     Avg  Evap Exfil       Maximum     Max    Time of Max    Maximum
                          Volume    Pcnt  Pcnt  Pcnt        Volume    Pcnt     Occurrence    Outflow
  Storage Unit          1000 ft3    Full  Loss  Loss      1000 ft3    Full    days hr:min        CFS
  --------------------------------------------------------------------------------------------------
  Well                     1.072      26     0     0         1.649      39       0  00:51       7.20
  
  
  ***********************
  Outfall Loading Summary
  ***********************
  
  -----------------------------------------------------------
                         Flow       Avg       Max       Total
                         Freq      Flow      Flow      Volume
  Outfall Node           Pcnt       CFS       CFS    10^6 gal
  -----------------------------------------------------------
  O1                    50.69      0.18      0.88       0.009
  O2                    55.72      0.53      2.37       0.055
  -----------------------------------------------------------
  System                53.21      0.71      2.60       0.064
  
  
  ********************
  Link Flow Summary
  ********************
  
  -----------------------------------------------------------------------------
                                 Maximum  Time of Max   Maximum    Max/    Max/
                                  |Flow|   Occurrence   |Veloc|    Full    Full
  Link                 Type          CFS  days hr:min    ft/sec    Flow   Depth
  -----------------------------------------------------------------------------
  C3                   CONDUIT      0.00     0  00:00      0.00    0.00    0.00
  C4                   CONDUIT      0.00     0  00:00      0.00    0.00    0.00
  C5                   CONDUIT      0.00     0  00:00      0.00    0.00    0.00
  C6                   CONDUIT      0.00     0  00:00      0.00    0.00    0.00
  C7                   CONDUIT      0.00     0  00:00      0.00    0.00    0.00
  C8                   CONDUIT      0.00     0  00:00      0.00    0.00    0.00
  C9                   CONDUIT      0.00     0  00:00      0.00    0.00    0.00
  C10                  CONDUIT      0.00     0  00:00      0.00    0.00    0.04
  C11                  CONDUIT      0.88     0  00:35      2.76    0.00    0.05
  C_Aux3               CONDUIT      0.00     0  00:00      0.00    0.00    0.00
  P1                   CONDUIT      1.54     0  00:35      4.88    0.24    0.28
  P2                   CONDUIT      1.73     0  00:35      3.78    0.20    0.31
  P3                   CONDUIT      1.62     0  00:35      4.37    0.20    0.26
  P4                   CONDUIT      0.85     0  00:35      2.28    0.14    0.24
  P5                   CONDUIT      2.11     0  00:35      4.36    0.13    0.30
  P6                   CONDUIT      2.16     0  00:35      5.07    0.17    0.25
  I1                   CONDUIT      0.63     0  00:40      1.93    0.27    0.48
  I2                   CONDUIT      1.98     0  00:36      3.23    0.73    0.74
  I3                   CONDUIT      3.65     0  00:37      3.76    0.59    0.54
  I4                   CONDUIT      5.54     0  00:37      5.69    0.51    0.54
  I5                   CONDUIT      1.51     0  00:35     18.37    0.61    0.92
  I6                   CONDUIT      1.83     0  00:35      5.47    1.06    0.96
  I7                   CONDUIT      2.10     0  00:36     11.87    0.81    0.84
  I8                   CONDUIT      1.56     0  00:36      9.06    0.74    0.82
  I9                   CONDUIT      7.04     0  00:37      5.46    0.38    0.50
  I10                  CONDUIT      7.24     0  00:35      4.35    0.32    1.00
  I11                  CONDUIT      5.50     0  00:41      2.99    0.24    1.00
  I12                  CONDUIT      2.44     0  00:51      1.50    0.11    0.62
  I13                  CONDUIT      2.37     0  00:55      0.72    0.03    0.31
  Pump1                PUMP         7.20     0  00:33              1.00
  Or1                  ORIFICE      0.63     0  00:39                          
  W1                   WEIR         0.00     0  00:00                      0.00
  W2                   WEIR         0.00     0  00:00                      0.00
  W3                   WEIR         0.00     0  00:00                      0.00
  W4                   WEIR         0.00     0  00:00                      0.00
  
  
  ***************************
  Flow Classification Summary
  ***************************
  
  -------------------------------------------------------------------------------------
                      Adjusted    ---------- Fraction of Time in Flow Class ---------- 
                       /Actual         Up    Down  Sub   Sup   Up    Down  Norm  Inlet 
  Conduit               Length    Dry  Dry   Dry   Crit  Crit  Crit  Crit  Ltd   Ctrl  
  -------------------------------------------------------------------------------------
  C3                      1.00   1.00  0.00  0.00  0.00  0.00  0.00  0.00  0.00  0.00
  C4                      1.00   1.00  0.00  0.00  0.00  0.00  0.00  0.00  0.00  0.00
  C5                      1.00   1.00  0.00  0.00  0.00  0.00  0.00  0.00  0.00  0.00
  C6                      1.00   1.00  0.00  0.00  0.00  0.00  0.00  0.00  0.00  0.00
  C7                      1.00   1.00  0.00  0.00  0.00  0.00  0.00  0.00  0.00  0.00
  C8                      1.00   1.00  0.00  0.00  0.00  0.00  0.00  0.00  0.00  0.00
  C9                      1.00   1.00  0.00  0.00  0.00  0.00  0.00  0.00  0.00  0.00
  C10                     1.00   0.00  1.00  0.00  0.00  0.00  0.00  0.00  0.00  0.00
  C11                     1.00   0.00  0.00  0.00  0.57  0.43  0.00  0.00  0.02  0.00
  C_Aux3                  1.00   1.00  0.00  0.00  0.00  0.00  0.00  0.00  0.00  0.00
  P1                      1.00   0.00  0.00  0.00  0.00  1.00  0.00  0.00  0.00  0.00
  P2                      1.00   0.00  0.00  0.00  0.84  0.16  0.00  0.00  0.96  0.00
  P3                      1.00   0.00  0.00  0.00  0.00  1.00  0.00  0.00  0.00  0.00
  P4                      1.00   0.00  0.00  0.00  1.00  0.00  0.00  0.00  0.01  0.00
  P5                      1.00   0.00  0.00  0.00  0.01  0.99  0.00  0.00  0.98  0.00
  P6                      1.00   0.00  0.00  0.00  0.00  1.00  0.00  0.00  0.00  0.00
  I1                      1.00   0.00  0.00  0.00  1.00  0.00  0.00  0.00  1.00  0.00
  I2                      1.00   0.00  0.00  0.00  0.99  0.01  0.00  0.00  0.98  0.00
  I3                      1.00   0.00  0.00  0.00  1.00  0.00  0.00  0.00  0.01  0.00
  I4                      1.00   0.00  0.00  0.00  0.26  0.74  0.00  0.00  0.98  0.00
  I5                      1.00   0.00  0.00  0.00  0.00  1.00  0.00  0.00  0.94  0.00
  I6                      1.00   0.00  0.00  0.00  0.89  0.11  0.00  0.00  0.98  0.00
  I7                      1.00   0.00  0.00  0.00  0.00  1.00  0.00  0.00  0.99  0.00
  I8                      1.00   0.00  0.00  0.00  0.63  0.37  0.00  0.00  0.99  0.00
  I9                      1.00   0.00  0.00  0.00  0.28  0.01  0.00  0.71  0.30  0.00
  I10                     1.00   0.09  0.01  0.00  0.90  0.00  0.00  0.00  0.00  0.00
  I11                     1.00   0.10  0.02  0.00  0.88  0.00  0.00  0.00  0.00  0.00
  I12                     1.00   0.12  0.03  0.00  0.85  0.00  0.00  0.00  0.12  0.00
  I13                     1.00   0.00  0.15  0.00  0.85  0.00  0.00  0.00  0.94  0.00
  
  
  *************************
  Conduit Surcharge Summary
  *************************
  
  ----------------------------------------------------------------------------
                                                           Hours        Hours 
                         --------- Hours Full --------   Above Full   Capacity
  Conduit                Both Ends  Upstream  Dnstream   Normal Flow   Limited
  ----------------------------------------------------------------------------
  I5                          0.01      0.01      0.32      0.01         0.01
  I6                          0.01      0.01      0.16      0.05         0.01
  I7                          0.01      0.01      0.25      0.01         0.01
  I8                          0.01      0.01      0.30      0.01         0.01
  I10                        11.35     11.35     11.41      0.01         0.01
  I11                        11.27     11.27     11.35      0.01         0.01
  I12                         0.01      0.01     11.26      0.01         0.01
  
  
  ***************
  Pumping Summary
  ***************
  
  ---------------------------------------------------------------------------------------------------------
                                                  Min       Avg       Max     Total     Power    % Time Off
                        Percent   Number of      Flow      Flow      Flow    Volume     Usage    Pump Curve
  Pump                 Utilized   Start-Ups       CFS       CFS       CFS  10^6 gal     Kw-hr    Low   High
  ---------------------------------------------------------------------------------------------------------
  Pump1                   17.21           2      0.00      2.30      7.20     0.084      4.72    0.0    4.4
  

  Analysis begun on:  Sun May 26 17:08:31 2019
  Analysis ended on:  Sun May 26 17:08:32 2019
  Total elapsed time: 00:00:01