
  EPA STORM WATER MANAGEMENT MODEL - VERSION 5.1 (Build 5.1.013)
  --------------------------------------------------------------

  Example 6 
  Runoff Treatment 
  Final Design 
  
  WARNING 04: minimum elevation drop used for Conduit C_out
  
  *********************************************************
  NOTE: The summary statistics displayed in this report are
  based on results found at every computational time step,  
  not just on results from each reporting time step.
  *********************************************************
  
  ****************
  Analysis Options
  ****************
  Flow Units ............... CFS
  Process Models:
    Rainfall/Runoff ........ YES
    RDII ................... NO
    Snowmelt ............... NO
    Groundwater ............ NO
    Flow Routing ........... YES
    Ponding Allowed ........ NO
    Water Quality .......... YES
  Infiltration Method ...... HORTON
  Flow Routing Method ...... DYNWAVE
  Surcharge Method ......... EXTRAN
  Starting Date ............ 01/01/2007 00:00:00
  Ending Date .............. 01/03/2007 00:00:00
  Antecedent Dry Days ...... 5.0
  Report Time Step ......... 00:01:00
  Wet Time Step ............ 00:01:00
  Dry Time Step ............ 01:00:00
  Routing Time Step ........ 15.00 sec
  Variable Time Step ....... YES
  Maximum Trials ........... 8
  Number of Threads ........ 1
  Head Tolerance ........... 0.005000 ft
  
  
  **************************        Volume         Depth
  Runoff Quantity Continuity     acre-feet        inches
  **************************     ---------       -------
  Total Precipitation ......         0.239         0.099
  Evaporation Loss .........         0.000         0.000
  Infiltration Loss ........         0.132         0.055
  Surface Runoff ...........         0.045         0.019
  Final Storage ............         0.062         0.026
  Continuity Error (%) .....        -0.015
  
  
  **************************           TSS
  Runoff Quality Continuity            lbs
  **************************    ----------
  Initial Buildup ..........      1015.204
  Surface Buildup ..........       120.807
  Wet Deposition ...........         6.499
  Sweeping Removal .........         0.000
  Infiltration Loss ........        18.230
  BMP Removal ..............         1.211
  Surface Runoff ...........        19.973
  Remaining Buildup ........      1103.079
  Continuity Error (%) .....         0.002
  
  
  **************************        Volume        Volume
  Flow Routing Continuity        acre-feet      10^6 gal
  **************************     ---------     ---------
  Dry Weather Inflow .......         0.000         0.000
  Wet Weather Inflow .......         0.045         0.015
  Groundwater Inflow .......         0.000         0.000
  RDII Inflow ..............         0.000         0.000
  External Inflow ..........         0.000         0.000
  External Outflow .........         0.042         0.014
  Flooding Loss ............         0.000         0.000
  Evaporation Loss .........         0.000         0.000
  Exfiltration Loss ........         0.000         0.000
  Initial Stored Volume ....         0.000         0.000
  Final Stored Volume ......         0.003         0.001
  Continuity Error (%) .....        -0.106
  
  
  **************************           TSS
  Quality Routing Continuity           lbs
  **************************    ----------
  Dry Weather Inflow .......         0.000
  Wet Weather Inflow .......        19.939
  Groundwater Inflow .......         0.000
  RDII Inflow ..............         0.000
  External Inflow ..........         0.000
  External Outflow .........        10.707
  Flooding Loss ............         0.000
  Exfiltration Loss ........         0.000
  Mass Reacted .............         8.801
  Initial Stored Mass ......         0.000
  Final Stored Mass ........         0.296
  Continuity Error (%) .....         0.679
  
  
  *************************
  Highest Continuity Errors
  *************************
  Node J3 (1.74%)
  
  
  ***************************
  Time-Step Critical Elements
  ***************************
  Link C11 (3.54%)
  
  
  ********************************
  Highest Flow Instability Indexes
  ********************************
  Link C11 (4)
  
  
  *************************
  Routing Time Step Summary
  *************************
  Minimum Time Step           :     4.79 sec
  Average Time Step           :    14.95 sec
  Maximum Time Step           :    15.00 sec
  Percent in Steady State     :    -0.00
  Average Iterations per Step :     2.00
  Percent Not Converging      :     0.00
  
  
  ***************************
  Subcatchment Runoff Summary
  ***************************
  
  ------------------------------------------------------------------------------------------------------------------------------
                            Total      Total      Total      Total     Imperv       Perv      Total       Total     Peak  Runoff
                           Precip      Runon       Evap      Infil     Runoff     Runoff     Runoff      Runoff   Runoff   Coeff
  Subcatchment                 in         in         in         in         in         in         in    10^6 gal      CFS
  ------------------------------------------------------------------------------------------------------------------------------
  S5                         0.10       0.00       0.00       0.01       0.05       0.00       0.05        0.01     0.26   0.481
  S6                         0.10       0.00       0.00       0.00       0.05       0.00       0.05        0.00     0.11   0.522
  S7                         0.10       0.00       0.00       0.10       0.00       0.00       0.00        0.00     0.00   0.000
  S3.1                       0.10       0.00       0.00       0.10       0.00       0.00       0.00        0.00     0.00   0.000
  S3.2                       0.10       0.00       0.00       0.03       0.04       0.00       0.04        0.00     0.04   0.357
  S3.3                       0.10       0.00       0.00       0.04       0.03       0.00       0.03        0.00     0.05   0.318
  S4.1                       0.10       0.00       0.00       0.10       0.00       0.00       0.00        0.00     0.00   0.000
  S4.2                       0.10       0.00       0.00       0.03       0.04       0.00       0.04        0.00     0.04   0.384
  S4.3                       0.10       0.00       0.00       0.03       0.04       0.00       0.04        0.00     0.08   0.357
  S4.4                       0.10       0.00       0.00       0.03       0.04       0.00       0.04        0.00     0.11   0.379
  S_FS_1                     0.00       0.96       0.00       0.74       0.00       0.22       0.22        0.00     0.02   0.228
  S_FS_2                     0.00       1.02       0.00       0.74       0.00       0.28       0.28        0.00     0.03   0.275
  S_FS_3                     0.00       1.21       0.00       0.77       0.00       0.45       0.45        0.00     0.02   0.369
  S_FS_4                     0.00       0.83       0.00       0.72       0.00       0.11       0.11        0.00     0.02   0.128
  S1.1                       0.10       0.00       0.00       0.03       0.04       0.00       0.04        0.00     0.05   0.357
  S1.2                       0.10       0.00       0.00       0.03       0.04       0.00       0.04        0.00     0.06   0.357
  S1.3                       0.10       0.00       0.00       0.05       0.02       0.00       0.02        0.00     0.06   0.247
  S2.1                       0.10       0.00       0.00       0.05       0.02       0.00       0.02        0.00     0.04   0.247
  S2.2                       0.10       0.00       0.00       0.03       0.04       0.00       0.04        0.00     0.07   0.384
  S2.3                       0.10       0.00       0.00       0.03       0.04       0.00       0.04        0.00     0.09   0.384
  S_IT_1                     0.00       1.68       0.00       1.68       0.00       0.00       0.00        0.00     0.00   0.000
  S_IT_2                     0.00       1.40       0.00       1.40       0.00       0.00       0.00        0.00     0.00   0.000
  S_IT_3                     0.00       1.86       0.00       1.86       0.00       0.00       0.00        0.00     0.00   0.000
  S_IT_4                     0.00       2.25       0.00       2.25       0.00       0.00       0.00        0.00     0.00   0.000
  
  
  ****************************
  Subcatchment Washoff Summary
  ****************************
  
  ----------------------------------
                                 TSS
  Subcatchment                   lbs
  ----------------------------------
  S5                           9.510
  S6                           4.340
  S7                           0.000
  S3.1                         0.000
  S3.2                         1.369
  S3.3                         1.749
  S4.1                         0.000
  S4.2                         1.409
  S4.3                         2.948
  S4.4                         2.773
  S_FS_1                       0.096
  S_FS_2                       0.148
  S_FS_3                       0.159
  S_FS_4                       0.116
  S1.1                         1.623
  S1.2                         1.959
  S1.3                         1.746
  S2.1                         1.208
  S2.2                         2.677
  S2.3                         3.355
  S_IT_1                       0.000
  S_IT_2                       0.000
  S_IT_3                       0.000
  S_IT_4                       0.000
  ----------------------------------
  System                      37.185
  
  
  ******************
  Node Depth Summary
  ******************
  
  ---------------------------------------------------------------------------------
                                 Average  Maximum  Maximum  Time of Max    Reported
                                   Depth    Depth      HGL   Occurrence   Max Depth
  Node                 Type         Feet     Feet     Feet  days hr:min        Feet
  ---------------------------------------------------------------------------------
  J1                   JUNCTION     0.00     0.03  4973.03     0  01:05        0.03
  J2                   JUNCTION     0.01     0.07  4969.07     0  01:01        0.07
  J3                   JUNCTION     0.00     0.01  4973.01     0  02:31        0.01
  J4                   JUNCTION     0.00     0.01  4971.01     0  02:43        0.01
  J5                   JUNCTION     0.00     0.04  4969.84     0  01:25        0.04
  J6                   JUNCTION     0.00     0.06  4969.06     0  01:34        0.06
  J7                   JUNCTION     0.00     0.03  4971.53     0  01:08        0.03
  J8                   JUNCTION     0.00     0.03  4966.53     0  01:38        0.03
  J9                   JUNCTION     0.01     0.06  4964.86     0  00:52        0.06
  J10                  JUNCTION     0.01     0.11  4963.91     0  00:51        0.11
  J11                  JUNCTION     0.01     0.11  4963.11     0  00:50        0.11
  J12                  JUNCTION     0.00     0.06  4973.86     0  00:52        0.06
  J13                  JUNCTION     0.00     0.06  4970.76     0  00:46        0.06
  J14                  JUNCTION     0.01     0.07  4972.97     0  00:45        0.07
  J15                  JUNCTION     0.00     0.02  4974.52     0  01:32        0.02
  J16                  JUNCTION     0.01     0.07  4973.57     0  01:07        0.07
  J17                  JUNCTION     0.00     0.02  4973.52     0  01:02        0.02
  J_out                JUNCTION     0.07     0.15  4954.15     0  02:51        0.15
  O2                   OUTFALL      0.00     0.02  4954.02     0  02:53        0.02
  SU2                  STORAGE      0.04     0.14  4956.14     0  02:53        0.14
  
  
  *******************
  Node Inflow Summary
  *******************
  
  -------------------------------------------------------------------------------------------------
                                  Maximum  Maximum                  Lateral       Total        Flow
                                  Lateral    Total  Time of Max      Inflow      Inflow     Balance
                                   Inflow   Inflow   Occurrence      Volume      Volume       Error
  Node                 Type           CFS      CFS  days hr:min    10^6 gal    10^6 gal     Percent
  -------------------------------------------------------------------------------------------------
  J1                   JUNCTION      0.00     0.04     0  00:58           0     0.00117       0.138
  J2                   JUNCTION      0.00     0.04     0  00:47           0    0.000877       0.965
  J3                   JUNCTION      0.00     0.01     0  02:02           0    0.000227       1.775
  J4                   JUNCTION      0.00     0.00     0  02:33           0    0.000223       0.200
  J5                   JUNCTION      0.00     0.07     0  01:09           0     0.00172      -0.524
  J6                   JUNCTION      0.00     0.06     0  01:11           0     0.00227       0.148
  J7                   JUNCTION      0.00     0.03     0  01:07           0    0.000543       0.175
  J8                   JUNCTION      0.00     0.05     0  01:35           0     0.00227       0.085
  J9                   JUNCTION      0.11     0.11     0  00:45     0.00246     0.00473       0.110
  J10                  JUNCTION      0.26     0.33     0  00:45     0.00624       0.011      -0.002
  J11                  JUNCTION      0.11     0.41     0  00:49      0.0028      0.0146      -0.089
  J12                  JUNCTION      0.05     0.05     0  00:45     0.00117     0.00117      -0.377
  J13                  JUNCTION      0.00     0.04     0  00:45           0    0.000873      -0.393
  J14                  JUNCTION      0.04     0.04     0  00:40     0.00087     0.00087      -0.422
  J15                  JUNCTION      0.02     0.02     0  00:59    0.000225    0.000225      -0.577
  J16                  JUNCTION      0.03     0.03     0  01:04    0.000541    0.000541      -0.365
  J17                  JUNCTION      0.03     0.03     0  00:56    0.000328    0.000328      -0.210
  J_out                JUNCTION      0.00     0.05     0  02:54           0      0.0138       0.018
  O2                   OUTFALL       0.00     0.05     0  02:53           0      0.0138       0.000
  SU2                  STORAGE       0.00     0.41     0  00:50           0      0.0146       0.089
  
  
  **********************
  Node Surcharge Summary
  **********************
  
  No nodes were surcharged.
  
  
  *********************
  Node Flooding Summary
  *********************
  
  No nodes were flooded.
  
  
  **********************
  Storage Volume Summary
  **********************
  
  --------------------------------------------------------------------------------------------------
                         Average     Avg  Evap Exfil       Maximum     Max    Time of Max    Maximum
                          Volume    Pcnt  Pcnt  Pcnt        Volume    Pcnt     Occurrence    Outflow
  Storage Unit          1000 ft3    Full  Loss  Loss      1000 ft3    Full    days hr:min        CFS
  --------------------------------------------------------------------------------------------------
  SU2                      0.465       0     0     0         1.457       1       0  02:53       0.05
  
  
  ***********************
  Outfall Loading Summary
  ***********************
  
  -------------------------------------------------------------------------
                         Flow       Avg       Max       Total         Total
                         Freq      Flow      Flow      Volume           TSS
  Outfall Node           Pcnt       CFS       CFS    10^6 gal           lbs
  -------------------------------------------------------------------------
  O2                    98.50      0.01      0.05       0.014        10.706
  -------------------------------------------------------------------------
  System                98.50      0.01      0.05       0.014        10.706
  
  
  ********************
  Link Flow Summary
  ********************
  
  -----------------------------------------------------------------------------
                                 Maximum  Time of Max   Maximum    Max/    Max/
                                  |Flow|   Occurrence   |Veloc|    Full    Full
  Link                 Type          CFS  days hr:min    ft/sec    Flow   Depth
  -----------------------------------------------------------------------------
  C1                   CONDUIT      0.05     0  01:10      0.35    0.00    0.01
  C2                   CONDUIT      0.03     0  01:01      0.57    0.00    0.04
  C3                   CONDUIT      0.00     0  02:33      0.00    0.00    0.00
  C4                   CONDUIT      0.00     0  02:43      0.04    0.00    0.01
  C5                   CONDUIT      0.04     0  01:25      0.17    0.00    0.02
  C6                   CONDUIT      0.04     0  01:10      0.33    0.00    0.01
  C7                   CONDUIT      0.05     0  01:35      2.04    0.00    0.01
  C8                   CONDUIT      0.05     0  01:38      0.21    0.00    0.01
  C9                   CONDUIT      0.08     0  00:52      0.21    0.00    0.03
  C10                  CONDUIT      0.29     0  00:51      0.48    0.00    0.04
  C11                  CONDUIT      0.41     0  00:50      4.10    0.00    0.02
  C12                  CONDUIT      0.04     0  00:58      0.19    0.00    0.01
  C13                  CONDUIT      0.04     0  00:45      0.84    0.00    0.04
  C14                  CONDUIT      0.04     0  00:47      1.00    0.00    0.04
  C15                  CONDUIT      0.01     0  02:02      0.09    0.00    0.00
  C16                  CONDUIT      0.03     0  01:05      0.28    0.00    0.01
  C17                  CONDUIT      0.03     0  01:07      1.25    0.00    0.03
  C_out                CONDUIT      0.05     0  02:53      0.70    0.01    0.02
  Or1                  ORIFICE      0.05     0  02:54                      0.87
  Or2                  ORIFICE      0.00     0  00:00                      0.00
  W1                   WEIR         0.00     0  00:00                      0.00
  
  
  ***************************
  Flow Classification Summary
  ***************************
  
  -------------------------------------------------------------------------------------
                      Adjusted    ---------- Fraction of Time in Flow Class ---------- 
                       /Actual         Up    Down  Sub   Sup   Up    Down  Norm  Inlet 
  Conduit               Length    Dry  Dry   Dry   Crit  Crit  Crit  Crit  Ltd   Ctrl  
  -------------------------------------------------------------------------------------
  C1                      1.00   0.00  0.16  0.00  0.84  0.00  0.00  0.00  0.98  0.00
  C2                      1.00   0.00  0.00  0.00  0.00  0.00  0.00  1.00  0.00  0.00
  C3                      1.00   0.02  0.00  0.00  0.92  0.06  0.00  0.00  0.71  0.00
  C4                      1.00   0.00  0.62  0.00  0.38  0.00  0.00  0.00  0.97  0.00
  C5                      1.00   0.00  0.00  0.00  1.00  0.00  0.00  0.00  0.20  0.00
  C6                      1.00   0.00  0.89  0.00  0.10  0.00  0.00  0.00  0.98  0.00
  C7                      1.00   0.00  0.00  0.00  0.88  0.12  0.00  0.00  0.78  0.00
  C8                      1.00   0.00  0.09  0.00  0.91  0.00  0.00  0.00  0.92  0.00
  C9                      1.00   0.00  0.00  0.00  1.00  0.00  0.00  0.00  1.00  0.00
  C10                     1.00   0.00  0.00  0.00  1.00  0.00  0.00  0.00  0.08  0.00
  C11                     1.00   0.00  0.00  0.00  0.00  0.00  0.00  1.00  0.00  0.00
  C12                     1.00   0.10  0.27  0.00  0.63  0.00  0.00  0.00  0.00  0.00
  C13                     1.00   0.00  0.00  0.00  0.99  0.01  0.00  0.00  0.12  0.00
  C14                     1.00   0.00  0.00  0.00  0.99  0.01  0.00  0.00  0.98  0.00
  C15                     1.00   0.02  0.46  0.00  0.52  0.00  0.00  0.00  0.96  0.00
  C16                     1.00   0.00  0.88  0.00  0.12  0.00  0.00  0.00  0.98  0.00
  C17                     1.00   0.02  0.00  0.00  0.93  0.05  0.00  0.00  0.00  0.00
  C_out                   1.00   0.01  0.00  0.00  0.99  0.00  0.00  0.00  0.00  0.00
  
  
  *************************
  Conduit Surcharge Summary
  *************************
  
  No conduits were surcharged.
  
  
  ***************************
  Link Pollutant Load Summary
  ***************************
  
  ----------------------------------
                                 TSS
  Link                           lbs
  ----------------------------------
  C1                           1.652
  C2                           1.211
  C3                           0.085
  C4                           0.052
  C5                           1.848
  C6                           0.276
  C7                           2.179
  C8                           2.009
  C9                           4.864
  C10                         14.231
  C11                         19.624
  C12                          1.658
  C13                          1.219
  C14                          1.233
  C15                          0.094
  C16                          0.145
  C17                          0.277
  C_out                       10.706
  Or1                         10.687
  Or2                          0.000
  W1                           0.000
  

  Analysis begun on:  Sun May 26 17:08:31 2019
  Analysis ended on:  Sun May 26 17:08:31 2019
  Total elapsed time: < 1 sec