
  EPA STORM WATER MANAGEMENT MODEL - VERSION 5.1 (Build 5.1.013)
  --------------------------------------------------------------

  Example 3 
  Detention Pond 
  
  WARNING 04: minimum elevation drop used for Conduit C_out
  
  *********************************************************
  NOTE: The summary statistics displayed in this report are
  based on results found at every computational time step,  
  not just on results from each reporting time step.
  *********************************************************
  
  ****************
  Analysis Options
  ****************
  Flow Units ............... CFS
  Process Models:
    Rainfall/Runoff ........ YES
    RDII ................... NO
    Snowmelt ............... NO
    Groundwater ............ NO
    Flow Routing ........... YES
    Ponding Allowed ........ NO
    Water Quality .......... NO
  Infiltration Method ...... HORTON
  Flow Routing Method ...... DYNWAVE
  Surcharge Method ......... EXTRAN
  Starting Date ............ 01/01/2007 00:00:00
  Ending Date .............. 01/04/2007 00:00:00
  Antecedent Dry Days ...... 0.0
  Report Time Step ......... 00:01:00
  Wet Time Step ............ 00:01:00
  Dry Time Step ............ 01:00:00
  Routing Time Step ........ 15.00 sec
  Variable Time Step ....... YES
  Maximum Trials ........... 8
  Number of Threads ........ 1
  Head Tolerance ........... 0.005000 ft
  
  
  **************************        Volume         Depth
  Runoff Quantity Continuity     acre-feet        inches
  **************************     ---------       -------
  Total Precipitation ......         4.123         1.711
  Evaporation Loss .........         0.000         0.000
  Infiltration Loss ........         1.393         0.578
  Surface Runoff ...........         2.670         1.108
  Final Storage ............         0.062         0.026
  Continuity Error (%) .....        -0.054
  
  
  **************************        Volume        Volume
  Flow Routing Continuity        acre-feet      10^6 gal
  **************************     ---------     ---------
  Dry Weather Inflow .......         0.000         0.000
  Wet Weather Inflow .......         2.669         0.870
  Groundwater Inflow .......         0.000         0.000
  RDII Inflow ..............         0.000         0.000
  External Inflow ..........         0.000         0.000
  External Outflow .........         2.664         0.868
  Flooding Loss ............         0.000         0.000
  Evaporation Loss .........         0.000         0.000
  Exfiltration Loss ........         0.000         0.000
  Initial Stored Volume ....         0.000         0.000
  Final Stored Volume ......         0.007         0.002
  Continuity Error (%) .....        -0.049
  
  
  ***************************
  Time-Step Critical Elements
  ***************************
  Link C_out (5.14%)
  Link C11 (3.34%)
  Link C7 (3.22%)
  
  
  ********************************
  Highest Flow Instability Indexes
  ********************************
  Link C11 (2)
  
  
  *************************
  Routing Time Step Summary
  *************************
  Minimum Time Step           :     1.14 sec
  Average Time Step           :    14.20 sec
  Maximum Time Step           :    15.00 sec
  Percent in Steady State     :    -0.00
  Average Iterations per Step :     2.00
  Percent Not Converging      :     0.00
  
  
  ***************************
  Subcatchment Runoff Summary
  ***************************
  
  ------------------------------------------------------------------------------------------------------------------------------
                            Total      Total      Total      Total     Imperv       Perv      Total       Total     Peak  Runoff
                           Precip      Runon       Evap      Infil     Runoff     Runoff     Runoff      Runoff   Runoff   Coeff
  Subcatchment                 in         in         in         in         in         in         in    10^6 gal      CFS
  ------------------------------------------------------------------------------------------------------------------------------
  S1                         1.71       0.00       0.00       0.58       0.95       0.16       1.10        0.14    12.93   0.646
  S2                         1.71       0.00       0.00       0.50       1.05       0.14       1.19        0.15    14.89   0.694
  S3                         1.71       0.00       0.00       0.81       0.66       0.22       0.88        0.09     7.59   0.514
  S4                         1.71       0.00       0.00       0.67       0.83       0.18       1.02        0.19    17.15   0.594
  S5                         1.71       0.00       0.00       0.16       1.46       0.05       1.51        0.20    20.66   0.883
  S6                         1.71       0.00       0.00       0.07       1.58       0.02       1.60        0.09     9.21   0.937
  S7                         1.71       0.00       0.00       1.37       0.00       0.34       0.34        0.02     0.98   0.200
  
  
  ******************
  Node Depth Summary
  ******************
  
  ---------------------------------------------------------------------------------
                                 Average  Maximum  Maximum  Time of Max    Reported
                                   Depth    Depth      HGL   Occurrence   Max Depth
  Node                 Type         Feet     Feet     Feet  days hr:min        Feet
  ---------------------------------------------------------------------------------
  J1                   JUNCTION     0.02     0.66  4973.66     0  00:35        0.66
  J2                   JUNCTION     0.03     0.65  4969.65     0  00:35        0.65
  J3                   JUNCTION     0.03     0.74  4973.74     0  00:35        0.74
  J4                   JUNCTION     0.02     0.59  4971.59     0  00:35        0.59
  J5                   JUNCTION     0.04     1.14  4970.94     0  00:35        1.13
  J6                   JUNCTION     0.04     1.20  4970.20     0  00:35        1.19
  J7                   JUNCTION     0.02     0.75  4972.25     0  00:35        0.75
  J8                   JUNCTION     0.04     1.20  4967.70     0  00:36        1.20
  J9                   JUNCTION     0.06     1.51  4966.31     0  00:37        1.51
  J10                  JUNCTION     0.07     1.67  4965.47     0  00:37        1.67
  J11                  JUNCTION     0.04     1.16  4964.16     0  00:35        1.15
  J_out                JUNCTION     0.20     0.90  4954.90     0  01:36        0.90
  O2                   OUTFALL      0.10     0.75  4954.75     0  01:36        0.75
  SU1                  STORAGE      0.55     3.18  4959.18     0  01:36        3.18
  
  
  *******************
  Node Inflow Summary
  *******************
  
  -------------------------------------------------------------------------------------------------
                                  Maximum  Maximum                  Lateral       Total        Flow
                                  Lateral    Total  Time of Max      Inflow      Inflow     Balance
                                   Inflow   Inflow   Occurrence      Volume      Volume       Error
  Node                 Type           CFS      CFS  days hr:min    10^6 gal    10^6 gal     Percent
  -------------------------------------------------------------------------------------------------
  J1                   JUNCTION     12.93    12.93     0  00:35       0.136       0.136      -0.184
  J2                   JUNCTION     14.89    14.89     0  00:35       0.153       0.153      -0.047
  J3                   JUNCTION      7.59     7.59     0  00:35      0.0892      0.0892      -0.019
  J4                   JUNCTION      0.00     7.56     0  00:35           0      0.0893      -0.127
  J5                   JUNCTION      0.00    20.16     0  00:35           0       0.226       0.199
  J6                   JUNCTION      0.00    34.64     0  00:35           0       0.413       0.053
  J7                   JUNCTION     17.15    17.15     0  00:35       0.187       0.187      -0.125
  J8                   JUNCTION      0.00    33.54     0  00:35           0       0.413      -0.134
  J9                   JUNCTION      0.00    33.17     0  00:36           0       0.413       0.160
  J10                  JUNCTION     20.87    45.68     0  00:35       0.218       0.631       0.021
  J11                  JUNCTION      9.21    62.24     0  00:35      0.0862        0.87       0.073
  J_out                JUNCTION      0.00     7.35     0  01:36           0       0.868      -0.002
  O2                   OUTFALL       0.00     7.35     0  01:36           0       0.868       0.000
  SU1                  STORAGE       0.00    62.18     0  00:35           0       0.869      -0.144
  
  
  **********************
  Node Surcharge Summary
  **********************
  
  No nodes were surcharged.
  
  
  *********************
  Node Flooding Summary
  *********************
  
  No nodes were flooded.
  
  
  **********************
  Storage Volume Summary
  **********************
  
  --------------------------------------------------------------------------------------------------
                         Average     Avg  Evap Exfil       Maximum     Max    Time of Max    Maximum
                          Volume    Pcnt  Pcnt  Pcnt        Volume    Pcnt     Occurrence    Outflow
  Storage Unit          1000 ft3    Full  Loss  Loss      1000 ft3    Full    days hr:min        CFS
  --------------------------------------------------------------------------------------------------
  SU1                     10.173       5     0     0        76.631      36       0  01:36       7.35
  
  
  ***********************
  Outfall Loading Summary
  ***********************
  
  -----------------------------------------------------------
                         Flow       Avg       Max       Total
                         Freq      Flow      Flow      Volume
  Outfall Node           Pcnt       CFS       CFS    10^6 gal
  -----------------------------------------------------------
  O2                    99.61      0.67      7.35       0.868
  -----------------------------------------------------------
  System                99.61      0.67      7.35       0.868
  
  
  ********************
  Link Flow Summary
  ********************
  
  -----------------------------------------------------------------------------
                                 Maximum  Time of Max   Maximum    Max/    Max/
                                  |Flow|   Occurrence   |Veloc|    Full    Full
  Link                 Type          CFS  days hr:min    ft/sec    Flow   Depth
  -----------------------------------------------------------------------------
  C1                   CONDUIT     12.76     0  00:35      1.61    0.04    0.30
  C2                   CONDUIT     13.05     0  00:35      2.75    0.30    0.62
  C3                   CONDUIT      7.56     0  00:35      7.80    0.22    0.29
  C4                   CONDUIT      7.42     0  00:35      1.00    0.03    0.29
  C5                   CONDUIT     18.19     0  00:35      1.44    0.12    0.39
  C6                   CONDUIT     16.97     0  00:35      1.92    0.05    0.32
  C7                   CONDUIT     33.54     0  00:35     11.52    0.25    0.34
  C8                   CONDUIT     33.17     0  00:36      2.16    0.13    0.45
  C9                   CONDUIT     30.07     0  00:37      1.46    0.21    0.53
  C10                  CONDUIT     41.91     0  00:36      2.50    0.22    0.47
  C11                  CONDUIT     62.18     0  00:35     18.67    0.13    0.28
  C_out                CONDUIT      7.35     0  01:36      3.55    0.79    0.17
  Or1                  ORIFICE      0.68     0  01:36                      1.00
  Or2                  ORIFICE      6.24     0  01:36                      1.00
  Or3                  ORIFICE      0.42     0  01:36                      1.00
  W1                   WEIR         0.01     0  01:36                      0.00
  
  
  ***************************
  Flow Classification Summary
  ***************************
  
  -------------------------------------------------------------------------------------
                      Adjusted    ---------- Fraction of Time in Flow Class ---------- 
                       /Actual         Up    Down  Sub   Sup   Up    Down  Norm  Inlet 
  Conduit               Length    Dry  Dry   Dry   Crit  Crit  Crit  Crit  Ltd   Ctrl  
  -------------------------------------------------------------------------------------
  C1                      1.00   0.07  0.47  0.00  0.46  0.00  0.00  0.00  0.64  0.00
  C2                      1.00   0.00  0.00  0.00  0.00  0.00  0.00  1.00  0.00  0.00
  C3                      1.00   0.00  0.00  0.00  0.92  0.08  0.00  0.00  0.03  0.00
  C4                      1.00   0.07  0.65  0.00  0.29  0.00  0.00  0.00  1.00  0.00
  C5                      1.00   0.00  0.07  0.00  0.93  0.00  0.00  0.00  0.66  0.00
  C6                      1.00   0.01  0.61  0.00  0.39  0.00  0.00  0.00  0.51  0.00
  C7                      1.00   0.00  0.01  0.00  0.87  0.13  0.00  0.00  0.90  0.00
  C8                      1.00   0.08  0.38  0.00  0.54  0.00  0.00  0.00  0.93  0.00
  C9                      1.00   0.01  0.07  0.00  0.92  0.00  0.00  0.00  0.89  0.00
  C10                     1.00   0.00  0.01  0.00  0.99  0.00  0.00  0.00  0.40  0.00
  C11                     1.00   0.00  0.00  0.00  0.18  0.01  0.00  0.80  0.17  0.00
  C_out                   1.00   0.00  0.00  0.00  1.00  0.00  0.00  0.00  0.00  0.00
  
  
  *************************
  Conduit Surcharge Summary
  *************************
  
  No conduits were surcharged.
  

  Analysis begun on:  Sun May 26 17:08:30 2019
  Analysis ended on:  Sun May 26 17:08:31 2019
  Total elapsed time: 00:00:01