
  EPA STORM WATER MANAGEMENT MODEL - VERSION 5.1 (Build 5.1.013)
  --------------------------------------------------------------

  Example 7 
  Dual Drainage System 
  Preliminary Design 
  
  
  *************
  Element Count
  *************
  Number of rain gages ...... 1
  Number of subcatchments ... 7
  Number of nodes ........... 16
  Number of links ........... 23
  Number of pollutants ...... 0
  Number of land uses ....... 0
  
  
  ****************
  Raingage Summary
  ****************
                                                      Data       Recording
  Name                 Data Source                    Type       Interval 
  ------------------------------------------------------------------------
  RainGage             2-yr                           INTENSITY    5 min.
  
  
  ********************
  Subcatchment Summary
  ********************
  Name                       Area     Width   %Imperv    %Slope Rain Gage            Outlet              
  -----------------------------------------------------------------------------------------------------------
  S1                         4.55   1587.00     56.80    2.0000 RainGage             Aux1                
  S2                         4.74   1653.00     63.00    2.0000 RainGage             Aux2                
  S3                         3.74   1456.00     39.50    3.1000 RainGage             Aux3                
  S4                         6.79   2331.00     49.90    3.1000 RainGage             J7                  
  S5                         4.79   1670.00     87.70    2.0000 RainGage             J10                 
  S6                         1.98    690.00     95.00    2.0000 RainGage             J11                 
  S7                         2.33    907.00      0.00    3.1000 RainGage             J10                 
  
  
  ************
  Node Summary
  ************
                                           Invert      Max.    Ponded    External
  Name                 Type                 Elev.     Depth      Area    Inflow  
  -------------------------------------------------------------------------------
  J1                   JUNCTION           4969.00      5.30       0.0
  J2a                  JUNCTION           4966.70      5.30       0.0
  J2                   JUNCTION           4965.00      5.30       0.0
  J3                   JUNCTION           4973.00      3.00       0.0
  J4                   JUNCTION           4965.00      9.00       0.0
  J5                   JUNCTION           4965.80      7.00       0.0
  J6                   JUNCTION           4969.00      3.50       0.0
  J7                   JUNCTION           4963.50     11.00       0.0
  J8                   JUNCTION           4966.50      3.50       0.0
  J9                   JUNCTION           4964.80      3.00       0.0
  J10                  JUNCTION           4957.80      9.00       0.0
  J11                  JUNCTION           4957.00      9.00       0.0
  Aux1                 JUNCTION           4975.00      1.30       0.0
  Aux2                 JUNCTION           4971.80      1.30       0.0
  Aux3                 JUNCTION           4968.50      9.00       0.0
  O1                   OUTFALL            4956.00      4.75       0.0
  
  
  ************
  Link Summary
  ************
  Name             From Node        To Node          Type            Length    %Slope Roughness
  ---------------------------------------------------------------------------------------------
  C2a              J2a              J2               CONDUIT          157.5    1.0796    0.0160
  C2               J2               J11              CONDUIT          526.0    1.1408    0.0160
  C3               J3               J4               CONDUIT          109.0    1.8352    0.0160
  C4               J4               J5               CONDUIT          133.0    0.9023    0.0500
  C5               J5               J6               CONDUIT          207.0    0.3865    0.0500
  C6               J7               J6               CONDUIT          140.0    1.7860    0.0500
  C7               J6               J8               CONDUIT           95.0    2.6325    0.0160
  C8               J8               J9               CONDUIT          166.0    1.0242    0.0500
  C9               J9               J10              CONDUIT          320.0    0.3125    0.0500
  C10              J10              J11              CONDUIT          145.0    0.5517    0.0500
  C11              J11              O1               CONDUIT           89.0    1.1237    0.0160
  C_Aux1           Aux1             J1               CONDUIT          377.3    0.5301    0.0160
  C_Aux2           Aux2             J2a              CONDUIT          239.4    0.4595    0.0160
  C_Aux1to2        J1               Aux2             CONDUIT          286.1    0.4195    0.0160
  C_Aux3           Aux3             J3               CONDUIT          444.8    0.3373    0.0500
  P1               J1               J5               CONDUIT          185.4    1.7263    0.0160
  P2               J2a              J2               CONDUIT          157.5    1.0796    0.0160
  P3               J2               J11              CONDUIT          529.2    1.5118    0.0160
  P4               Aux3             J4               CONDUIT          567.2    0.6171    0.0160
  P5               J5               J4               CONDUIT          126.0    0.6350    0.0160
  P6               J4               J7               CONDUIT          360.4    0.4162    0.0160
  P7               J7               J10              CONDUIT          507.8    1.1226    0.0160
  P8               J10              J11              CONDUIT          144.5    0.5536    0.0160
  
  
  *********************
  Cross Section Summary
  *********************
                                        Full     Full     Hyd.     Max.   No. of     Full
  Conduit          Shape               Depth     Area     Rad.    Width  Barrels     Flow
  ---------------------------------------------------------------------------------------
  C2a              Half_Street          1.30    26.00     0.63    40.00        1   184.60
  C2               Half_Street          1.30    26.00     0.63    40.00        1   189.76
  C3               CIRCULAR             2.25     3.98     0.56     2.25        1    34.09
  C4               TRAPEZOIDAL          3.00    60.00     1.69    35.00        1   239.91
  C5               TRAPEZOIDAL          3.00    60.00     1.69    35.00        1   157.02
  C6               TRAPEZOIDAL          3.00    60.00     1.69    35.00        1   337.54
  C7               CIRCULAR             3.50     9.62     0.88     3.50        1   132.63
  C8               TRAPEZOIDAL          3.00    60.00     1.69    35.00        1   255.60
  C9               TRAPEZOIDAL          3.00    60.00     1.69    35.00        1   141.19
  C10              TRAPEZOIDAL          3.00    60.00     1.69    35.00        1   187.61
  C11              CIRCULAR             4.75    17.72     1.19     4.75        1   195.64
  C_Aux1           Full_Street          1.30    52.00     0.64    80.00        1   260.83
  C_Aux2           Full_Street          1.30    52.00     0.64    80.00        1   242.84
  C_Aux1to2        Full_Street          1.30    52.00     0.64    80.00        1   232.03
  C_Aux3           TRAPEZOIDAL          3.00    60.00     1.69    35.00        1   146.68
  P1               CIRCULAR             1.00     0.79     0.25     1.00        1     3.80
  P2               CIRCULAR             1.00     0.79     0.25     1.00        1     3.01
  P3               CIRCULAR             1.00     0.79     0.25     1.00        1     3.56
  P4               CIRCULAR             3.00     7.07     0.75     3.00        1    42.57
  P5               CIRCULAR             3.00     7.07     0.75     3.00        1    43.19
  P6               CIRCULAR             3.00     7.07     0.75     3.00        1    34.96
  P7               CIRCULAR             3.00     7.07     0.75     3.00        1    57.42
  P8               CIRCULAR             3.00     7.07     0.75     3.00        1    40.32
  
  
  
  ****************
  Transect Summary
  ****************

  Transect Full_Street
  Area:  
              0.0003     0.0013     0.0029     0.0052     0.0081 
              0.0117     0.0159     0.0208     0.0263     0.0325 
              0.0393     0.0468     0.0549     0.0637     0.0731 
              0.0832     0.0939     0.1053     0.1173     0.1302 
              0.1443     0.1598     0.1765     0.1946     0.2139 
              0.2346     0.2565     0.2798     0.3043     0.3302 
              0.3573     0.3853     0.4139     0.4432     0.4731 
              0.5037     0.5349     0.5668     0.5993     0.6325 
              0.6663     0.7008     0.7359     0.7717     0.8081 
              0.8452     0.8829     0.9213     0.9603     1.0000 
  Hrad:  
              0.0195     0.0389     0.0584     0.0779     0.0974 
              0.1168     0.1363     0.1558     0.1752     0.1947 
              0.2142     0.2337     0.2531     0.2726     0.2921 
              0.3115     0.3310     0.3505     0.3700     0.3766 
              0.3821     0.3899     0.3994     0.4105     0.4227 
              0.4358     0.4498     0.4644     0.4796     0.4953 
              0.5141     0.5418     0.5692     0.5963     0.6231 
              0.6497     0.6760     0.7020     0.7278     0.7534 
              0.7788     0.8040     0.8291     0.8539     0.8786 
              0.9032     0.9276     0.9519     0.9760     1.0000 
  Width: 
              0.0163     0.0325     0.0488     0.0650     0.0813 
              0.0975     0.1137     0.1300     0.1462     0.1625 
              0.1788     0.1950     0.2113     0.2275     0.2438 
              0.2600     0.2763     0.2925     0.3088     0.3375 
              0.3700     0.4025     0.4350     0.4675     0.5000 
              0.5325     0.5650     0.5975     0.6300     0.6625 
              0.6913     0.7075     0.7238     0.7400     0.7563 
              0.7725     0.7888     0.8050     0.8213     0.8375 
              0.8538     0.8700     0.8863     0.9025     0.9188 
              0.9350     0.9513     0.9675     0.9838     1.0000 

  Transect Half_Street
  Area:  
              0.0003     0.0013     0.0029     0.0052     0.0081 
              0.0117     0.0159     0.0208     0.0263     0.0325 
              0.0393     0.0468     0.0549     0.0637     0.0731 
              0.0832     0.0939     0.1053     0.1173     0.1302 
              0.1443     0.1598     0.1765     0.1946     0.2139 
              0.2346     0.2565     0.2798     0.3043     0.3302 
              0.3573     0.3853     0.4139     0.4432     0.4731 
              0.5037     0.5349     0.5668     0.5993     0.6325 
              0.6663     0.7008     0.7359     0.7717     0.8081 
              0.8452     0.8829     0.9213     0.9603     1.0000 
  Hrad:  
              0.0197     0.0394     0.0591     0.0788     0.0986 
              0.1183     0.1380     0.1577     0.1774     0.1971 
              0.2168     0.2365     0.2563     0.2760     0.2957 
              0.3154     0.3351     0.3548     0.3745     0.3813 
              0.3868     0.3947     0.4044     0.4155     0.4279 
              0.4412     0.4553     0.4701     0.4855     0.5014 
              0.5203     0.5479     0.5751     0.6020     0.6286 
              0.6549     0.6809     0.7066     0.7321     0.7574 
              0.7824     0.8073     0.8319     0.8564     0.8807 
              0.9049     0.9289     0.9527     0.9764     1.0000 
  Width: 
              0.0163     0.0325     0.0488     0.0650     0.0813 
              0.0975     0.1137     0.1300     0.1462     0.1625 
              0.1788     0.1950     0.2113     0.2275     0.2438 
              0.2600     0.2763     0.2925     0.3088     0.3375 
              0.3700     0.4025     0.4350     0.4675     0.5000 
              0.5325     0.5650     0.5975     0.6300     0.6625 
              0.6913     0.7075     0.7238     0.7400     0.7563 
              0.7725     0.7888     0.8050     0.8213     0.8375 
              0.8538     0.8700     0.8863     0.9025     0.9188 
              0.9350     0.9513     0.9675     0.9838     1.0000 
  
  
  *********************************************************
  NOTE: The summary statistics displayed in this report are
  based on results found at every computational time step,  
  not just on results from each reporting time step.
  *********************************************************
  
  ****************
  Analysis Options
  ****************
  Flow Units ............... CFS
  Process Models:
    Rainfall/Runoff ........ YES
    RDII ................... NO
    Snowmelt ............... NO
    Groundwater ............ NO
    Flow Routing ........... YES
    Ponding Allowed ........ NO
    Water Quality .......... NO
  Infiltration Method ...... HORTON
  Flow Routing Method ...... DYNWAVE
  Surcharge Method ......... EXTRAN
  Starting Date ............ 01/01/2007 00:00:00
  Ending Date .............. 01/01/2007 12:00:00
  Antecedent Dry Days ...... 0.0
  Report Time Step ......... 00:01:00
  Wet Time Step ............ 00:01:00
  Dry Time Step ............ 01:00:00
  Routing Time Step ........ 15.00 sec
  Variable Time Step ....... YES
  Maximum Trials ........... 8
  Number of Threads ........ 1
  Head Tolerance ........... 0.005000 ft
  
  
  **************************        Volume         Depth
  Runoff Quantity Continuity     acre-feet        inches
  **************************     ---------       -------
  Total Precipitation ......         2.358         0.978
  Evaporation Loss .........         0.000         0.000
  Infiltration Loss ........         1.011         0.420
  Surface Runoff ...........         1.286         0.533
  Final Storage ............         0.062         0.026
  Continuity Error (%) .....        -0.042
  
  
  **************************        Volume        Volume
  Flow Routing Continuity        acre-feet      10^6 gal
  **************************     ---------     ---------
  Dry Weather Inflow .......         0.000         0.000
  Wet Weather Inflow .......         1.284         0.419
  Groundwater Inflow .......         0.000         0.000
  RDII Inflow ..............         0.000         0.000
  External Inflow ..........         0.000         0.000
  External Outflow .........         1.285         0.419
  Flooding Loss ............         0.000         0.000
  Evaporation Loss .........         0.000         0.000
  Exfiltration Loss ........         0.000         0.000
  Initial Stored Volume ....         0.000         0.000
  Final Stored Volume ......         0.000         0.000
  Continuity Error (%) .....        -0.062
  
  
  ***************************
  Time-Step Critical Elements
  ***************************
  Link C11 (27.73%)
  
  
  ********************************
  Highest Flow Instability Indexes
  ********************************
  All links are stable.
  
  
  *************************
  Routing Time Step Summary
  *************************
  Minimum Time Step           :     3.63 sec
  Average Time Step           :    13.12 sec
  Maximum Time Step           :    15.00 sec
  Percent in Steady State     :     0.00
  Average Iterations per Step :     2.01
  Percent Not Converging      :     0.06
  
  
  ***************************
  Subcatchment Runoff Summary
  ***************************
  
  ------------------------------------------------------------------------------------------------------------------------------
                            Total      Total      Total      Total     Imperv       Perv      Total       Total     Peak  Runoff
                           Precip      Runon       Evap      Infil     Runoff     Runoff     Runoff      Runoff   Runoff   Coeff
  Subcatchment                 in         in         in         in         in         in         in    10^6 gal      CFS
  ------------------------------------------------------------------------------------------------------------------------------
  S1                         0.98       0.00       0.00       0.42       0.53       0.00       0.53        0.07     7.35   0.542
  S2                         0.98       0.00       0.00       0.36       0.59       0.00       0.59        0.08     8.47   0.601
  S3                         0.98       0.00       0.00       0.59       0.37       0.00       0.37        0.04     4.24   0.377
  S4                         0.98       0.00       0.00       0.49       0.47       0.00       0.47        0.09     9.70   0.476
  S5                         0.98       0.00       0.00       0.12       0.82       0.00       0.82        0.11    11.75   0.837
  S6                         0.98       0.00       0.00       0.05       0.89       0.00       0.89        0.05     5.23   0.907
  S7                         0.98       0.00       0.00       0.98       0.00       0.00       0.00        0.00     0.00   0.000
  
  
  ******************
  Node Depth Summary
  ******************
  
  ---------------------------------------------------------------------------------
                                 Average  Maximum  Maximum  Time of Max    Reported
                                   Depth    Depth      HGL   Occurrence   Max Depth
  Node                 Type         Feet     Feet     Feet  days hr:min        Feet
  ---------------------------------------------------------------------------------
  J1                   JUNCTION     0.22     4.14  4973.14     0  00:37        4.14
  J2a                  JUNCTION     0.34     4.34  4971.04     0  00:36        4.34
  J2                   JUNCTION     0.30     4.23  4969.23     0  00:39        4.23
  J3                   JUNCTION     0.00     0.00  4973.00     0  00:00        0.00
  J4                   JUNCTION     0.14     1.02  4966.02     0  00:36        1.02
  J5                   JUNCTION     0.10     0.70  4966.50     0  00:37        0.70
  J6                   JUNCTION     0.00     0.00  4969.00     0  00:00        0.00
  J7                   JUNCTION     0.15     1.13  4964.63     0  00:35        1.13
  J8                   JUNCTION     0.00     0.00  4966.50     0  00:00        0.00
  J9                   JUNCTION     0.00     0.00  4964.80     0  00:00        0.00
  J10                  JUNCTION     0.22     1.74  4959.54     0  00:35        1.73
  J11                  JUNCTION     0.19     1.41  4958.41     0  00:35        1.41
  Aux1                 JUNCTION     0.06     0.36  4975.36     0  00:35        0.36
  Aux2                 JUNCTION     0.07     0.40  4972.20     0  00:35        0.39
  Aux3                 JUNCTION     0.07     0.64  4969.14     0  00:35        0.64
  O1                   OUTFALL      0.18     1.41  4957.41     0  00:35        1.40
  
  
  *******************
  Node Inflow Summary
  *******************
  
  -------------------------------------------------------------------------------------------------
                                  Maximum  Maximum                  Lateral       Total        Flow
                                  Lateral    Total  Time of Max      Inflow      Inflow     Balance
                                   Inflow   Inflow   Occurrence      Volume      Volume       Error
  Node                 Type           CFS      CFS  days hr:min    10^6 gal    10^6 gal     Percent
  -------------------------------------------------------------------------------------------------
  J1                   JUNCTION      0.00     6.59     0  00:35           0      0.0655       0.041
  J2a                  JUNCTION      0.00     7.66     0  00:35           0      0.0764       0.174
  J2                   JUNCTION      0.00     7.25     0  00:36           0      0.0763      -0.691
  J3                   JUNCTION      0.00     0.00     0  00:00           0           0       0.000 gal
  J4                   JUNCTION      0.00     9.35     0  00:35           0       0.102       0.286
  J5                   JUNCTION      0.00     5.22     0  00:37           0      0.0648      -0.008
  J6                   JUNCTION      0.00     0.00     0  00:00           0           0       0.000 gal
  J7                   JUNCTION      9.70    17.96     0  00:35      0.0858       0.188      -0.040
  J8                   JUNCTION      0.00     0.00     0  00:00           0           0       0.000 gal
  J9                   JUNCTION      0.00     0.00     0  00:00           0           0       0.000 gal
  J10                  JUNCTION     11.75    29.00     0  00:35       0.106       0.295      -0.005
  J11                  JUNCTION      5.23    37.52     0  00:35      0.0477       0.419       0.060
  Aux1                 JUNCTION      7.35     7.35     0  00:35      0.0655      0.0655      -0.030
  Aux2                 JUNCTION      8.47     8.50     0  00:35      0.0757      0.0763      -0.128
  Aux3                 JUNCTION      4.24     4.24     0  00:35      0.0374      0.0374      -0.559
  O1                   OUTFALL       0.00    37.60     0  00:35           0       0.419       0.000
  
  
  **********************
  Node Surcharge Summary
  **********************
  
  No nodes were surcharged.
  
  
  *********************
  Node Flooding Summary
  *********************
  
  No nodes were flooded.
  
  
  ***********************
  Outfall Loading Summary
  ***********************
  
  -----------------------------------------------------------
                         Flow       Avg       Max       Total
                         Freq      Flow      Flow      Volume
  Outfall Node           Pcnt       CFS       CFS    10^6 gal
  -----------------------------------------------------------
  O1                    63.73      4.28     37.60       0.419
  -----------------------------------------------------------
  System                63.73      4.28     37.60       0.419
  
  
  ********************
  Link Flow Summary
  ********************
  
  -----------------------------------------------------------------------------
                                 Maximum  Time of Max   Maximum    Max/    Max/
                                  |Flow|   Occurrence   |Veloc|    Full    Full
  Link                 Type          CFS  days hr:min    ft/sec    Flow   Depth
  -----------------------------------------------------------------------------
  C2a                  CHANNEL      4.06     0  00:36      2.86    0.02    0.26
  C2                   CHANNEL      1.54     0  00:39      2.29    0.01    0.18
  C3                   CONDUIT      0.00     0  00:00      0.00    0.00    0.00
  C4                   CONDUIT      0.00     0  00:00      0.00    0.00    0.00
  C5                   CONDUIT      0.00     0  00:00      0.00    0.00    0.00
  C6                   CONDUIT      0.00     0  00:00      0.00    0.00    0.00
  C7                   CONDUIT      0.00     0  00:00      0.00    0.00    0.00
  C8                   CONDUIT      0.00     0  00:00      0.00    0.00    0.00
  C9                   CONDUIT      0.00     0  00:00      0.00    0.00    0.00
  C10                  CONDUIT      0.00     0  00:00      0.00    0.00    0.00
  C11                  CONDUIT     37.60     0  00:35      8.52    0.19    0.30
  C_Aux1               CHANNEL      6.59     0  00:35      2.17    0.03    0.27
  C_Aux2               CHANNEL      7.66     0  00:35      2.17    0.03    0.29
  C_Aux1to2            CHANNEL      0.48     0  00:37      0.29    0.00    0.20
  C_Aux3               CONDUIT      0.00     0  00:00      0.00    0.00    0.00
  P1                   CONDUIT      5.22     0  00:37      7.32    1.37    0.85
  P2                   CONDUIT      4.84     0  00:32      6.16    1.61    1.00
  P3                   CONDUIT      4.38     0  00:45      5.62    1.23    1.00
  P4                   CONDUIT      4.20     0  00:35      2.82    0.10    0.27
  P5                   CONDUIT      5.22     0  00:37      3.33    0.12    0.29
  P6                   CONDUIT      8.73     0  00:36      4.02    0.25    0.36
  P7                   CONDUIT     17.42     0  00:35      5.21    0.30    0.48
  P8                   CONDUIT     28.65     0  00:35      7.65    0.71    0.53
  
  
  ***************************
  Flow Classification Summary
  ***************************
  
  -------------------------------------------------------------------------------------
                      Adjusted    ---------- Fraction of Time in Flow Class ---------- 
                       /Actual         Up    Down  Sub   Sup   Up    Down  Norm  Inlet 
  Conduit               Length    Dry  Dry   Dry   Crit  Crit  Crit  Crit  Ltd   Ctrl  
  -------------------------------------------------------------------------------------
  C2a                     1.00   0.95  0.00  0.00  0.00  0.00  0.00  0.05  0.00  0.00
  C2                      1.00   0.96  0.00  0.00  0.00  0.00  0.00  0.04  0.00  0.00
  C3                      1.00   1.00  0.00  0.00  0.00  0.00  0.00  0.00  0.00  0.00
  C4                      1.00   1.00  0.00  0.00  0.00  0.00  0.00  0.00  0.00  0.00
  C5                      1.00   1.00  0.00  0.00  0.00  0.00  0.00  0.00  0.00  0.00
  C6                      1.00   1.00  0.00  0.00  0.00  0.00  0.00  0.00  0.00  0.00
  C7                      1.00   1.00  0.00  0.00  0.00  0.00  0.00  0.00  0.00  0.00
  C8                      1.00   1.00  0.00  0.00  0.00  0.00  0.00  0.00  0.00  0.00
  C9                      1.00   1.00  0.00  0.00  0.00  0.00  0.00  0.00  0.00  0.00
  C10                     1.00   1.00  0.00  0.00  0.00  0.00  0.00  0.00  0.00  0.00
  C11                     1.00   0.00  0.00  0.00  0.54  0.46  0.00  0.00  0.10  0.00
  C_Aux1                  1.00   0.00  0.00  0.00  0.00  0.00  0.00  1.00  0.00  0.00
  C_Aux2                  1.00   0.00  0.00  0.00  0.00  0.00  0.00  1.00  0.00  0.00
  C_Aux1to2               1.00   0.00  0.98  0.00  0.02  0.00  0.00  0.00  0.95  0.00
  C_Aux3                  1.00   1.00  0.00  0.00  0.00  0.00  0.00  0.00  0.00  0.00
  P1                      1.00   0.00  0.00  0.00  0.40  0.60  0.00  0.00  0.01  0.00
  P2                      1.00   0.00  0.00  0.00  0.78  0.22  0.00  0.00  0.39  0.00
  P3                      1.00   0.00  0.00  0.00  0.99  0.00  0.00  0.00  0.45  0.00
  P4                      1.00   0.00  0.11  0.00  0.88  0.01  0.00  0.00  0.97  0.00
  P5                      1.00   0.00  0.00  0.00  1.00  0.00  0.00  0.00  0.99  0.00
  P6                      1.00   0.00  0.00  0.00  1.00  0.00  0.00  0.00  0.16  0.00
  P7                      1.00   0.00  0.00  0.00  1.00  0.00  0.00  0.00  1.00  0.00
  P8                      1.00   0.00  0.00  0.00  0.74  0.26  0.00  0.00  0.61  0.00
  
  
  *************************
  Conduit Surcharge Summary
  *************************
  
  ----------------------------------------------------------------------------
                                                           Hours        Hours 
                         --------- Hours Full --------   Above Full   Capacity
  Conduit                Both Ends  Upstream  Dnstream   Normal Flow   Limited
  ----------------------------------------------------------------------------
  P1                          0.01      0.19      0.01      0.19         0.01
  P2                          0.30      0.35      0.32      0.30         0.23
  P3                          0.21      0.32      0.26      0.34         0.20
  

  Analysis begun on:  Sun May 26 17:08:31 2019
  Analysis ended on:  Sun May 26 17:08:31 2019
  Total elapsed time: < 1 sec